aquifer.con: written by SWAT+ editor v2.1.0 on 2023-02-01 16:50 for SWAT+ rev.60.5.4
      id  name                gis_id          area           lat           lon          elev       aqu               wst       cst      ovfl      rule   out_tot  
       1  aqu1                     0   15055.88831      52.60731      18.66888      92.19560         1     s52604n18678e         0         0         0         0  
