chandeg.con: written by SWAT+ editor v2.1.0 on 2023-02-01 16:50 for SWAT+ rev.60.5.4
      id  name                gis_id          area           lat           lon          elev      lcha               wst       cst      ovfl      rule   out_tot       obj_typ    obj_id       hyd_typ          frac  
       1  cha001                   0      46.16850      52.55753      18.72968      89.67424         1      s52564n1873e         0         0         0         1           res        25           tot       1.00000  
       2  cha002                   0      67.97570      52.56445      18.70970      89.14096         2       s52566n187e         0         0         0         1           res         4           tot       1.00000  
       3  cha003                   0      12.87620      52.62236      18.60788      92.27088         3     s52626n18623e         0         0         0         1           sdc       127           tot       1.00000  
       4  cha004                   0       6.80740      52.66464      18.61294      90.89509         4     s52663n18601e         0         0         0         1           sdc       117           tot       1.00000  
       5  cha005                   0      88.17860      52.59871      18.65000      87.83559         5     s52606n18649e         0         0         0         1           sdc        29           tot       1.00000  
       6  cha006                   0      13.98510      52.61264      18.65743      89.89013         6     s52606n18649e         0         0         0         1           sdc        81           tot       1.00000  
       7  cha007                   0      17.69880      52.64830      18.62652      90.42504         7     s52643n18626e         0         0         0         1           sdc        39           tot       1.00000  
       8  cha008                   0      24.39470      52.63029      18.60817      91.68631         8     s52628n18594e         0         0         0         1           sdc        40           tot       1.00000  
       9  cha009                   0       5.14280      52.57223      18.63104      89.99501         9      s5257n18642e         0         0         0         1           sdc        62           tot       1.00000  
      10  cha010                   0      30.25460      52.60470      18.62987      89.82010        10     s52608n18619e         0         0         0         1           sdc         5           tot       1.00000  
      11  cha011                   0       2.60930      52.64092      18.71312      90.66678        11     s52637n18715e         0         0         0         1           sdc        37           tot       1.00000  
      12  cha012                   0      18.56040      52.57746      18.71210      91.72108        12     s52584n18704e         0         0         0         1           sdc        68           tot       1.00000  
      13  cha013                   0       4.86710      52.66074      18.67375      89.11697        13     s52657n18689e         0         0         0         1           sdc        22           tot       1.00000  
      14  cha014                   0       9.31622      52.56105      18.68391      86.15539        14     s52568n18671e         0         0         0         1           sdc        45           tot       1.00000  
      15  cha015                   0       2.95310      52.63054      18.73618      93.60028        15     s52635n18744e         0         0         0         1           sdc        24           tot       1.00000  
      16  cha016                   0      30.77640      52.60624      18.71844      90.36002        16     s52601n18707e         0         0         0         1           sdc        18           tot       1.00000  
      17  cha017                   0      13.48360      52.60595      18.56589      96.97588        17     s52612n18561e         0         0         0         1           sdc        50           tot       1.00000  
      18  cha018                   0      53.94910      52.61051      18.71039      89.39002        18     s52619n18711e         0         0         0         1           sdc        73           tot       1.00000  
      19  cha019                   0      10.07200      52.65502      18.69159      90.00198        19     s52657n18689e         0         0         0         1           sdc        22           tot       1.00000  
      20  cha020                   0       0.57910      52.63004      18.59271      93.69004        20     s52628n18594e         0         0         0         1           sdc         3           tot       1.00000  
      21  cha021                   0       3.02870      52.63545      18.73737      94.12000        21     s52635n18744e         0         0         0         1           sdc        24           tot       1.00000  
      22  cha022                   0       7.10060      52.65018      18.67684      88.95909        22     s52657n18689e         0         0         0         1           sdc       128           tot       1.00000  
      23  cha023                   0      14.64070      52.62239      18.69432      89.53086        23     s52621n18682e         0         0         0         1           sdc        36           tot       1.00000  
      24  cha024                   0       5.83010      52.62264      18.72427      91.01569        24     s52619n18711e         0         0         0         1           sdc        35           tot       1.00000  
      25  cha025                   0      17.45400      52.59511      18.71409      91.77002        25     s52601n18707e         0         0         0         1           sdc        18           tot       1.00000  
      26  cha026                   0      92.21950      52.56309      18.69186      87.02001        26       s52566n187e         0         0         0         1           res        27           tot       1.00000  
      27  cha027                   0      94.55370      52.55614      18.68585      85.81040        27       s52566n187e         0         0         0         1           sdc        45           tot       1.00000  
      28  cha028                   0      43.91550      52.59645      18.61724      90.14010        28      s5259n18616e         0         0         0         1           sdc         5           tot       1.00000  
      29  cha029                   0     123.43260      52.59196      18.67415      84.74590        29     s52586n18675e         0         0         0         1           sdc        30           tot       1.00000  
      30  cha030                   0     416.58318      52.58353      18.66759      83.34026        30     s52586n18675e         0         0         0         1           sdc       126           tot       1.00000  
      31  cha031                   0     461.54990      52.56258      18.65118      80.83752        31      s5257n18642e         0         0         0         1           res        23           tot       1.00000  
      32  cha032                   0     464.51520      52.55572      18.65885      80.35085        32     s52568n18671e         0         0         0         1           sdc        43           tot       1.00000  
      33  cha033                   0      19.05230      52.54403      18.74439      91.18513        33     s52544n18755e         0         0         0         1           sdc        65           tot       1.00000  
      34  cha034                   0     275.87064      52.59564      18.68915      85.07088        34     s52604n18678e         0         0         0         1           sdc        30           tot       1.00000  
      35  cha035                   0     203.35450      52.61670      18.70545      88.76505        35     s52619n18711e         0         0         0         1           sdc        52           tot       1.00000  
      36  cha036                   0     199.32520      52.62122      18.70702      88.66153        36     s52619n18711e         0         0         0         1           sdc        35           tot       1.00000  
      37  cha037                   0     180.53610      52.62679      18.70612      88.74586        37     s52619n18711e         0         0         0         1           sdc        36           tot       1.00000  
      38  cha038                   0     149.45330      52.63570      18.69267      88.66520        38     s52639n18685e         0         0         0         1           sdc        37           tot       1.00000  
      39  cha039                   0      68.61306      52.64372      18.63465      89.95695        39     s52643n18626e         0         0         0         1           sdc       110           tot       1.00000  
      40  cha040                   0      37.90660      52.63510      18.62096      90.73040        40     s52643n18626e         0         0         0         1           sdc        39           tot       1.00000  
      41  cha041                   0       5.80820      52.62412      18.58112      94.41006        41     s52628n18594e         0         0         0         1           sdc       105           tot       1.00000  
      42  cha042                   0     120.70480      52.64456      18.67391      88.66843        42     s52639n18685e         0         0         0         1           sdc       128           tot       1.00000  
      43  cha043                   0     578.21580      52.55232      18.66175      80.17609        43     s52568n18671e         0         0         0         0  
      44  cha044                   0       0.58086      52.60057      18.57872      96.25029        44     s52592n18587e         0         0         0         1           sdc        46           tot       1.00000  
      45  cha045                   0     108.95240      52.55419      18.67749      84.06003        45     s52568n18671e         0         0         0         1           sdc        54           tot       1.00000  
      46  cha046                   0      18.83920      52.60436      18.58435      94.25001        46       s5261n1859e         0         0         0         1           sdc        47           tot       1.00000  
      47  cha047                   0      19.62230      52.60244      18.59080      92.72633        47       s5261n1859e         0         0         0         1           sdc        48           tot       1.00000  
      48  cha048                   0      20.80660      52.59952      18.59788      91.31580        48     s52592n18587e         0         0         0         1           sdc        28           tot       1.00000  
      49  cha049                   0       6.13480      52.60643      18.59780      93.37078        49       s5261n1859e         0         0         0         1           sdc        28           tot       1.00000  
      50  cha050                   0      14.67500      52.60540      18.57734      94.25109        50       s5261n1859e         0         0         0         1           sdc        46           tot       1.00000  
      51  cha051                   0      13.48360      52.61121      18.56509      95.85085        51     s52612n18561e         0         0         0         1           sdc        50           tot       1.00000  
      52  cha052                   0     260.11674      52.60898      18.70160      86.76003        52     s52601n18707e         0         0         0         1           sdc        34           tot       1.00000  
      53  cha053                   0     438.01014      52.57089      18.65115      83.09002        53      s5257n18642e         0         0         0         1           sdc        31           tot       1.00000  
      54  cha054                   0     113.67960      52.55414      18.66637      81.65874        54     s52568n18671e         0         0         0         1           sdc        43           tot       1.00000  
      55  cha055                   0       6.80452      52.58683      18.63397      89.96001        55     s52588n18645e         0         0         0         1           sdc        57           tot       1.00000  
      56  cha056                   0      10.36210      52.58527      18.63941      89.45515        56     s52588n18645e         0         0         0         1           sdc        58           tot       1.00000  
      57  cha057                   0       7.35360      52.58729      18.63592      89.90521        57     s52588n18645e         0         0         0         1           sdc        56           tot       1.00000  
      58  cha058                   0      12.40424      52.58350      18.64852      88.12000        58     s52588n18645e         0         0         0         1           sdc        59           tot       1.00000  
      59  cha059                   0      13.89295      52.58277      18.65485      87.00009        59     s52588n18645e         0         0         0         1           sdc        60           tot       1.00000  
      60  cha060                   0      14.57400      52.58003      18.65776      85.28500        60     s52588n18645e         0         0         0         1           sdc       126           tot       1.00000  
      61  cha061                   0       0.44510      52.58721      18.65078      89.34500        61     s52588n18645e         0         0         0         1           sdc        59           tot       1.00000  
      62  cha062                   0       0.41770      52.56518      18.64616      84.22505        62      s5257n18642e         0         0         0         1           sdc        63           tot       1.00000  
      63  cha063                   0       0.00850      52.56523      18.65097      81.42501        63      s5257n18642e         0         0         0         1           sdc        31           tot       1.00000  
      64  cha064                   0      23.10190      52.54825      18.72434      93.31509        64     s52546n18726e         0         0         0         1           sdc        65           tot       1.00000  
      65  cha065                   0      31.44050      52.55216      18.73595      90.54745        65     s52546n18726e         0         0         0         1           sdc         1           tot       1.00000  
      66  cha066                   0      10.60690      52.55134      18.75397      92.21737        66     s52544n18755e         0         0         0         1           sdc         1           tot       1.00000  
      67  cha067                   0       7.34860      52.57682      18.68602      87.53005        67     s52586n18675e         0         0         0         1           sdc        68           tot       1.00000  
      68  cha068                   0      18.65530      52.57240      18.69459      87.42200        68       s52566n187e         0         0         0         1           res         4           tot       1.00000  
      69  cha069                   0       7.34860      52.57727      18.69209      88.01109        69     s52584n18704e         0         0         0         1           sdc        68           tot       1.00000  
      70  cha070                   0       8.30440      52.59920      18.73145      91.91008        70     s52599n18737e         0         0         0         1           sdc        72           tot       1.00000  
      71  cha071                   0      12.56100      52.60827      18.72672      91.82528        71     s52599n18737e         0         0         0         1           sdc        16           tot       1.00000  
      72  cha072                   0      15.87170      52.60542      18.72525      90.90028        72     s52599n18737e         0         0         0         1           sdc        16           tot       1.00000  
      73  cha073                   0     258.78850      52.61293      18.70572      88.33001        73     s52619n18711e         0         0         0         1           sdc        52           tot       1.00000  
      74  cha074                   0      10.95480      52.60949      18.74041      94.40020        74      s52617n1874e         0         0         0         1           sdc        71           tot       1.00000  
      75  cha075                   0       0.79210      52.61139      18.72229      92.65031        75     s52619n18711e         0         0         0         1           sdc        71           tot       1.00000  
      76  cha076                   0       0.07270      52.61273      18.70939      90.21004        76     s52619n18711e         0         0         0         1           sdc        52           tot       1.00000  
      77  cha077                   0       0.35590      52.61415      18.69567      90.09506        77     s52619n18711e         0         0         0         1           sdc        52           tot       1.00000  
      78  cha078                   0       0.23690      52.61561      18.68100      90.00526        78     s52621n18682e         0         0         0         1           sdc        80           tot       1.00000  
      79  cha079                   0       0.14830      52.61634      18.67499      90.38052        79     s52621n18682e         0         0         0         1           sdc        80           tot       1.00000  
      80  cha080                   0       1.22930      52.61214      18.67312      89.75002        80     s52604n18678e         0         0         0         1           sdc        84           tot       1.00000  
      81  cha081                   0      94.25080      52.60216      18.67023      87.74059        81     s52604n18678e         0         0         0         1           sdc        29           tot       1.00000  
      82  cha082                   0       0.67830      52.61256      18.66864      89.56521        82     s52604n18678e         0         0         0         1           sdc        83           tot       1.00000  
      83  cha083                   0       2.82420      52.61045      18.66817      89.14031        83     s52604n18678e         0         0         0         1           sdc        84           tot       1.00000  
      84  cha084                   0       2.82420      52.60856      18.66817      88.79513        84     s52604n18678e         0         0         0         1           sdc        81           tot       1.00000  
      85  cha085                   0       4.56750      52.62028      18.64537      90.39501        85     s52624n18652e         0         0         0         1           sdc         6           tot       1.00000  
      86  cha086                   0       1.85840      52.62404      18.63445      91.45514        86     s52626n18623e         0         0         0         1           sdc        85           tot       1.00000  
      87  cha087                   0      23.87150      52.61225      18.63284      92.11500        87     s52608n18619e         0         0         0         1           sdc        10           tot       1.00000  
      88  cha088                   0      19.80420      52.61358      18.61927      90.73067        88     s52608n18619e         0         0         0         1           sdc        89           tot       1.00000  
      89  cha089                   0      23.80940      52.61114      18.62509      91.26031        89     s52608n18619e         0         0         0         1           sdc        10           tot       1.00000  
      90  cha090                   0      23.32950      52.61533      18.62264      91.17566        90     s52608n18619e         0         0         0         1           sdc        89           tot       1.00000  
      91  cha091                   0       0.44380      52.61193      18.61512      91.89000        91     s52608n18619e         0         0         0         1           sdc        92           tot       1.00000  
      92  cha092                   0      18.96493      52.61514      18.61499      90.86032        92     s52608n18619e         0         0         0         1           sdc        88           tot       1.00000  
      93  cha093                   0       0.79820      52.61509      18.61331      91.16568        93     s52608n18619e         0         0         0         1           sdc        92           tot       1.00000  
      94  cha094                   0      17.37020      52.61683      18.61246      90.88557        94     s52608n18619e         0         0         0         1           sdc        93           tot       1.00000  
      95  cha095                   0       1.65640      52.61827      18.66004      91.08001        95     s52624n18652e         0         0         0         1           sdc         6           tot       1.00000  
      96  cha096                   0       4.63340      52.62043      18.64177      91.42017        96     s52624n18652e         0         0         0         1           sdc         6           tot       1.00000  
      97  cha097                   0       0.11800      52.62143      18.63184      92.84505        97     s52626n18623e         0         0         0         1           sdc        86           tot       1.00000  
      98  cha098                   0       0.88290      52.61956      18.63067      92.97005        98     s52626n18623e         0         0         0         1           sdc        86           tot       1.00000  
      99  cha099                   0       1.66630      52.62825      18.66123      90.71503        99     s52624n18652e         0         0         0         1           sdc       121           tot       1.00000  
     100  cha100                   0      20.77920      52.65458      18.66834      88.79025       100     s52657n18689e         0         0         0         1           sdc       125           tot       1.00000  
     101  cha101                   0     120.69820      52.64619      18.66900      88.83929       101     s52641n18656e         0         0         0         1           sdc        42           tot       1.00000  
     102  cha102                   0       0.34410      52.63803      18.64303      90.07697       102     s52641n18656e         0         0         0         1           sdc       110           tot       1.00000  
     103  cha103                   0     120.28210      52.64328      18.66471      88.92429       103     s52641n18656e         0         0         0         1           sdc        42           tot       1.00000  
     104  cha104                   0       1.14990      52.63613      18.56818      94.82003       104      s5263n18564e         0         0         0         1           sdc       108           tot       1.00000  
     105  cha105                   0       9.66310      52.62585      18.58985      93.62055       105     s52628n18594e         0         0         0         1           sdc         3           tot       1.00000  
     106  cha106                   0       0.35930      52.62368      18.61282      91.74680       106     s52626n18623e         0         0         0         1           sdc       127           tot       1.00000  
     107  cha107                   0       0.36060      52.62798      18.56962      95.28034       107      s5263n18564e         0         0         0         1           sdc       108           tot       1.00000  
     108  cha108                   0       7.30720      52.62692      18.58113      94.37005       108     s52628n18594e         0         0         0         1           sdc       105           tot       1.00000  
     109  cha109                   0       0.25640      52.64622      18.65685      89.00041       109     s52641n18656e         0         0         0         1           sdc       103           tot       1.00000  
     110  cha110                   0      70.66010      52.64470      18.65183      89.04183       110     s52641n18656e         0         0         0         1           sdc       103           tot       1.00000  
     111  cha111                   0      12.02350      52.63815      18.65548      89.67535       111     s52641n18656e         0         0         0         1           sdc       103           tot       1.00000  
     112  cha112                   0      19.49524      52.66210      18.64610      88.87160       112      s52661n1863e         0         0         0         1           sdc       113           tot       1.00000  
     113  cha113                   0      91.69130      52.65297      18.65264      88.99997       113     s52641n18656e         0         0         0         1           sdc       101           tot       1.00000  
     114  cha114                   0       3.00565      52.66688      18.62537      90.10009       114      s52661n1863e         0         0         0         1           sdc       117           tot       1.00000  
     115  cha115                   0      18.16580      52.66126      18.64033      88.87256       115      s52661n1863e         0         0         0         1           sdc       113           tot       1.00000  
     116  cha116                   0       0.54100      52.66636      18.63642      89.17149       116      s52661n1863e         0         0         0         1           sdc       115           tot       1.00000  
     117  cha117                   0      14.94830      52.66197      18.63288      89.33652       117      s52661n1863e         0         0         0         1           sdc       115           tot       1.00000  
     118  cha118                   0      20.30660      52.66133      18.65260      89.38552       118      s52661n1863e         0         0         0         1           sdc       112           tot       1.00000  
     119  cha119                   0      22.17170      52.66433      18.65084      88.90019       119      s52661n1863e         0         0         0         1           sdc       112           tot       1.00000  
     120  cha120                   0       1.24740      52.63089      18.67131      90.56507       120     s52639n18685e         0         0         0         1           sdc       121           tot       1.00000  
     121  cha121                   0       9.30350      52.63707      18.67189      89.22357       121     s52639n18685e         0         0         0         1           sdc       123           tot       1.00000  
     122  cha122                   0       0.53040      52.63462      18.67851      89.83859       122     s52639n18685e         0         0         0         1           sdc       123           tot       1.00000  
     123  cha123                   0      10.06738      52.64118      18.68187      88.66689       123     s52639n18685e         0         0         0         1           sdc        38           tot       1.00000  
     124  cha124                   0      22.85570      52.65268      18.66384      89.08524       124     s52641n18656e         0         0         0         1           sdc       125           tot       1.00000  
     125  cha125                   0      23.18216      52.64944      18.66806      88.67024       125     s52641n18656e         0         0         0         1           sdc       101           tot       1.00000  
     126  cha126                   0     433.39398      52.57727      18.65649      82.97014       126      s5257n18642e         0         0         0         1           sdc        53           tot       1.00000  
     127  cha127                   0       0.23780      52.62528      18.61962      90.96638       127     s52626n18623e         0         0         0         1           sdc        40           tot       1.00000  
     128  cha128                   0     123.83099      52.64353      18.67992      88.66755       128     s52639n18685e         0         0         0         1           sdc        38           tot       1.00000  
