hru-data.hru: written by SWAT+ editor v2.1.0 on 2023-02-01 11:30 for SWAT+ rev.60.5.4 and edited with SWATfarmR 2.0.0 on 2023-02-05 12:48:30
      id  name                          topo             hydro              soil            lu_mgt   soil_plant_init         surf_stor              snow             field
       1  hru00001              topohru00001          hyd00001 SL1_SL3_SL3_2_>100cm_>100cm_N        f1_lum             null              null           snow001              null
       2  hru00002              topohru00002          hyd00002 SL1_SL1_SL3_3_>100cm_>100cm_N        f2_lum             null              null           snow001              null
       3  hru00003              topohru00003          hyd00003 LS2_S3_SL3_5_>100cm_>100cm_N        f3_lum             null              null           snow001              null
       4  hru00004              topohru00004          hyd00004 SL1_S3_S3_2_>100cm_>100cm_N        f4_lum             null              null           snow001              null
       5  hru00005              topohru00005          hyd00005 S3_S3_S1_4_>100cm_>100cm_N        f5_lum             null              null           snow001              null
       6  hru00006              topohru00006          hyd00006 SL1_SL1_SL3_2_>100cm_>100cm_N        f6_lum             null              null           snow001              null
       7  hru00007              topohru00007          hyd00007 LS2_S3_SL3_3_>100cm_>100cm_N        f7_lum             null              null           snow001              null
       8  hru00008              topohru00008          hyd00008 LS2_LS2_SL3_2_>100cm_>100cm_N        f8_lum             null              null           snow001              null
       9  hru00009              topohru00009          hyd00009 SL3_SL3_SL3_2_>100cm_>100cm_N        f9_lum             null              null           snow001              null
      10  hru00010              topohru00010          hyd00010 SL3_SL3_SL3_2_>100cm_>100cm_N      f10_lum             null              null           snow001              null
      11  hru00011              topohru00011          hyd00011 SL3_SL3_SL3_2_>100cm_>100cm_N      f11_lum             null              null           snow001              null
      12  hru00012              topohru00012          hyd00012 LS2_LS2_SL3_2_>100cm_>100cm_N      f12_lum             null              null           snow001              null
      13  hru00013              topohru00013          hyd00013 LS2_LS2_SL3_2_>100cm_>100cm_N      f13_lum             null              null           snow001              null
      14  hru00014              topohru00014          hyd00014 LS2_S3_SL3_3_>100cm_>100cm_N      f14_lum             null              null           snow001              null
      15  hru00015              topohru00015          hyd00015 S3_S3_L_3_>100cm_>100cm_N      f15_lum             null              null           snow001              null
      16  hru00016              topohru00016          hyd00016 LS2_LS2_SL3_2_>100cm_>100cm_N      f16_lum             null              null           snow001              null
      17  hru00017              topohru00017          hyd00017 LS2_LS2_SL3_2_>100cm_>100cm_N      f17_lum             null              null           snow001              null
      18  hru00018              topohru00018          hyd00018 LS2_SL3_SL3_2_>100cm_>100cm_N      f18_lum             null              null           snow001              null
      19  hru00019              topohru00019          hyd00019 LS2_LS2_L_3_>100cm_>100cm_N      f19_lum             null              null           snow001              null
      20  hru00020              topohru00020          hyd00020 LS2_LS2_L_3_>100cm_>100cm_N      f20_lum             null              null           snow001              null
      21  hru00021              topohru00021          hyd00021 SL1_SL3_SL3_2_>100cm_>100cm_N      f21_lum             null              null           snow001              null
      22  hru00022              topohru00022          hyd00022 LS2_SL3_SL3_2_>100cm_>100cm_N      f22_lum             null              null           snow001              null
      23  hru00023              topohru00023          hyd00023 LS2_SL3_SL3_2_>100cm_>100cm_N      f23_lum             null              null           snow001              null
      24  hru00024              topohru00024          hyd00024 LS2_LS2_L_3_>100cm_>100cm_N      f24_lum             null              null           snow001              null
      25  hru00025              topohru00025          hyd00025 LS2_LS2_SL3_3_>100cm_>100cm_N      f25_lum             null              null           snow001              null
      26  hru00026              topohru00026          hyd00026 SL3_SL3_SL3_3_>100cm_>100cm_N      f26_lum             null              null           snow001              null
      27  hru00027              topohru00027          hyd00027 LS2_LS2_SL3_2_>100cm_>100cm_N      f27_lum             null              null           snow001              null
      28  hru00028              topohru00028          hyd00028 LS2_LS2_SL3_2_>100cm_>100cm_N      f28_lum             null              null           snow001              null
      29  hru00029              topohru00029          hyd00029 SL3_SL3_SL3_3_>100cm_>100cm_N      f29_lum             null              null           snow001              null
      30  hru00030              topohru00030          hyd00030 SL3_SL3_SL3_3_>100cm_>100cm_N      f30_lum             null              null           snow001              null
      31  hru00031              topohru00031          hyd00031 LS2_S3_SL3_3_>100cm_>100cm_N      f31_lum             null              null           snow001              null
      32  hru00032              topohru00032          hyd00032 SL1_SL3_SL3_2_>100cm_>100cm_N      f32_lum             null              null           snow001              null
      33  hru00033              topohru00033          hyd00033 SL1_SL1_SL3_3_>100cm_>100cm_N      f33_lum             null              null           snow001              null
      34  hru00034              topohru00034          hyd00034 SL1_SL1_SL3_2_>100cm_>100cm_N      f34_lum             null              null           snow001              null
      35  hru00035              topohru00035          hyd00035 LS2_LS2_SL3_3_>100cm_>100cm_N      f35_lum             null              null           snow001              null
      36  hru00036              topohru00036          hyd00036 S1_S1_S1_5_>100cm_>100cm_N      f36_lum             null              null           snow001              null
      37  hru00037              topohru00037          hyd00037 S2_S2_S2_5_>100cm_>100cm_N      f37_lum             null              null           snow001              null
      38  hru00038              topohru00038          hyd00038 LS2_LS2_SL3_3_>100cm_>100cm_N      f38_lum             null              null           snow001              null
      39  hru00039              topohru00039          hyd00039 LS2_LS2_SL3_3_>100cm_>100cm_N     fesc_lum             null              null           snow001              null
      40  hru00040              topohru00040          hyd00040 LS2_LS2_SL3_3_>100cm_>100cm_N      f40_lum             null              null           snow001              null
      41  hru00041              topohru00041          hyd00041 LS2_LS2_SL3_3_>100cm_>100cm_N      f41_lum             null              null           snow001              null
      42  hru00042              topohru00042          hyd00042 LS2_LS2_SL3_3_>100cm_>100cm_N      f42_lum             null              null           snow001              null
      43  hru00043              topohru00043          hyd00043 S3_S3_L_4_>100cm_>100cm_N      f43_lum             null              null           snow001              null
      44  hru00044              topohru00044          hyd00044 S3_S3_L_4_>100cm_>100cm_N      f44_lum             null              null           snow001              null
      45  hru00045              topohru00045          hyd00045 S3_S3_L_4_>100cm_>100cm_N      f45_lum             null              null           snow001              null
      46  hru00046              topohru00046          hyd00046 SL2_SL2_SL3_2_>100cm_>100cm_N      f46_lum             null              null           snow001              null
      47  hru00047              topohru00047          hyd00047 S3_S3_SL3_4_>100cm_>100cm_N      f47_lum             null              null           snow001              null
      48  hru00048              topohru00048          hyd00048 LS2_S3_SL3_3_>100cm_>100cm_N      f48_lum             null              null           snow001              null
      49  hru00049              topohru00049          hyd00049 LS2_LS2_SL3_3_>100cm_>100cm_N      f49_lum             null              null           snow001              null
      50  hru00050              topohru00050          hyd00050 LS2_S3_S3_3_>100cm_>100cm_N      f50_lum             null              null           snow001              null
      51  hru00051              topohru00051          hyd00051 S3_S3_S3_4_>100cm_>100cm_N      f51_lum             null              null           snow001              null
      52  hru00052              topohru00052          hyd00052 LS2_S3_S3_3_>100cm_>100cm_N      f52_lum             null              null           snow001              null
      53  hru00053              topohru00053          hyd00053 LS2_S3_S3_3_>100cm_60-100cm_N      f53_lum             null              null           snow001              null
      54  hru00054              topohru00054          hyd00054 Mpl_S3_S3_8_>100cm_60-100cm_N      f54_lum             null              null           snow001              null
      55  hru00055              topohru00055          hyd00055 S3_S3_SL3_4_>100cm_>100cm_N      f55_lum             null              null           snow001              null
      56  hru00056              topohru00056          hyd00056 LS2_LS2_SL3_3_>100cm_>100cm_N      f56_lum             null              null           snow001              null
      57  hru00057              topohru00057          hyd00057 LS2_S3_SL3_3_>100cm_>100cm_N      f57_lum             null              null           snow001              null
      58  hru00058              topohru00058          hyd00058 LS2_S3_SL3_3_>100cm_>100cm_N      f58_lum             null              null           snow001              null
      59  hru00059              topohru00059          hyd00059 S3_S3_SL3_4_>100cm_>100cm_N      f59_lum             null              null           snow001              null
      60  hru00060              topohru00060          hyd00060 LS2_S3_SL3_3_>100cm_>100cm_N      f60_lum             null              null           snow001              null
      61  hru00061              topohru00061          hyd00061 S3_S3_SL3_4_>100cm_>100cm_N      f61_lum             null              null           snow001              null
      62  hru00062              topohru00062          hyd00062 S3_S3_SL3_4_>100cm_>100cm_N      f62_lum             null              null           snow001              null
      63  hru00063              topohru00063          hyd00063 S3_S3_SL3_4_>100cm_>100cm_N      f63_lum             null              null           snow001              null
      64  hru00064              topohru00064          hyd00064 S3_S3_S3_4_>100cm_>100cm_N      f64_lum             null              null           snow001              null
      65  hru00065              topohru00065          hyd00065 S3_S3_S3_4_>100cm_>100cm_N      f65_lum             null              null           snow001              null
      66  hru00066              topohru00066          hyd00066 S3_S3_SL3_4_>100cm_>100cm_N      f66_lum             null              null           snow001              null
      67  hru00067              topohru00067          hyd00067 Mpl_S1_S1_8_>100cm_60-100cm_N     fesc_lum             null              null           snow001              null
      68  hru00068              topohru00068          hyd00068 S1_S1_S1_5_>100cm_>100cm_N      f68_lum             null              null           snow001              null
      69  hru00069              topohru00069          hyd00069 S1_S1_S1_5_>100cm_>100cm_N      f69_lum             null              null           snow001              null
      70  hru00070              topohru00070          hyd00070 S3_S3_S3_4_>100cm_>100cm_N      f70_lum             null              null           snow001              null
      71  hru00071              topohru00071          hyd00071 SL1_SL3_SL3_2_>100cm_>100cm_N      f71_lum             null              null           snow001              null
      72  hru00072              topohru00072          hyd00072 SL1_SL3_SL3_2_>100cm_>100cm_N      f72_lum             null              null           snow001              null
      73  hru00073              topohru00073          hyd00073 SL2_SL2_SL2_2_>100cm_>100cm_N      f73_lum             null              null           snow001              null
      74  hru00074              topohru00074          hyd00074 SL1_SL3_SL3_3_>100cm_>100cm_N     orcd_lum             null              null           snow001              null
      75  hru00075              topohru00075          hyd00075 LS2_LS2_SL3_2_>100cm_>100cm_N     orcd_lum             null              null           snow001              null
      76  hru00076              topohru00076          hyd00076 S3_S3_SL3_4_>100cm_>100cm_N      f76_lum             null              null           snow001              null
      77  hru00077              topohru00077          hyd00077 S3_S3_SL3_4_>100cm_>100cm_N      f77_lum             null              null           snow001              null
      78  hru00078              topohru00078          hyd00078 S3_S3_SL3_4_>100cm_>100cm_N      f78_lum             null              null           snow001              null
      79  hru00079              topohru00079          hyd00079 S3_S3_SL3_4_>100cm_>100cm_N      f79_lum             null              null           snow001              null
      80  hru00080              topohru00080          hyd00080 S3_S3_SL3_4_>100cm_>100cm_N      f80_lum             null              null           snow001              null
      81  hru00081              topohru00081          hyd00081 S3_S3_S3_4_>100cm_>100cm_N      f81_lum             null              null           snow001              null
      82  hru00082              topohru00082          hyd00082 S3_S3_S3_4_>100cm_>100cm_N      f82_lum             null              null           snow001              null
      83  hru00083              topohru00083          hyd00083 S3_S3_SL3_3_>100cm_>100cm_N      f83_lum             null              null           snow001              null
      84  hru00084              topohru00084          hyd00084 S3_S3_S3_4_>100cm_>100cm_N      f84_lum             null              null           snow001              null
      85  hru00085              topohru00085          hyd00085 S3_S3_SL3_3_>100cm_>100cm_N      f85_lum             null              null           snow001              null
      86  hru00086              topohru00086          hyd00086 LS2_S3_SL3_3_>100cm_>100cm_N      f86_lum             null              null           snow001              null
      87  hru00087              topohru00087          hyd00087 S3_S3_S3_4_>100cm_>100cm_N      f87_lum             null              null           snow001              null
      88  hru00088              topohru00088          hyd00088 LS2_LS2_SL3_3_>100cm_>100cm_N      f88_lum             null              null           snow001              null
      89  hru00089              topohru00089          hyd00089 SL1_SL3_SL3_2_>100cm_>100cm_N      f89_lum             null              null           snow001              null
      90  hru00090              topohru00090          hyd00090 LS2_LS2_SL3_5_>100cm_>100cm_N      f90_lum             null              null           snow001              null
      91  hru00091              topohru00091          hyd00091 LS2_LS2_SL3_5_>100cm_>100cm_N      f91_lum             null              null           snow001              null
      92  hru00092              topohru00092          hyd00092 SL1_SL3_SL3_2_>100cm_>100cm_N      f92_lum             null              null           snow001              null
      93  hru00093              topohru00093          hyd00093 LS2_LS2_SL3_3_>100cm_>100cm_N      f93_lum             null              null           snow001              null
      94  hru00094              topohru00094          hyd00094 S3_S3_SL3_4_>100cm_>100cm_N      f94_lum             null              null           snow001              null
      95  hru00095              topohru00095          hyd00095 LS2_SL3_SL3_2_>100cm_>100cm_N      f95_lum             null              null           snow001              null
      96  hru00096              topohru00096          hyd00096 LS2_LS2_SL4_2_>100cm_>100cm_N      f96_lum             null              null           snow001              null
      97  hru00097              topohru00097          hyd00097 Tn_Tn_Tn_6_>100cm_>100cm_N      f97_lum             null              null           snow001              null
      98  hru00098              topohru00098          hyd00098 LS2_LS2_SL3_3_>100cm_>100cm_N      f98_lum             null              null           snow001              null
      99  hru00099              topohru00099          hyd00099 LS2_LS2_SL3_5_>100cm_>100cm_N      f99_lum             null              null           snow001              null
     100  hru00100              topohru00100          hyd00100 SL2_SL2_SL3_2_>100cm_>100cm_N    f100_lum             null              null           snow001              null
     101  hru00101              topohru00101          hyd00101 LS2_LS2_SL3_2_>100cm_>100cm_N    f101_lum             null              null           snow001              null
     102  hru00102              topohru00102          hyd00102 Tn_Tn_Tn_6_>100cm_60-100cm_N    f102_lum             null              null           snow001              null
     103  hru00103              topohru00103          hyd00103 SL2_SL3_SL3_2_>100cm_>100cm_N    f103_lum             null              null           snow001              null
     104  hru00104              topohru00104          hyd00104 Emt_Emt_Emt_7_>100cm_60-100cm_N    fesc_lum             null              null           snow001              null
     105  hru00105              topohru00105          hyd00105 S1_S1_S1_5_>100cm_>100cm_N    f105_lum             null              null           snow001              null
     106  hru00106              topohru00106          hyd00106 S1_S1_S1_5_>100cm_>100cm_N    f106_lum             null              null           snow001              null
     107  hru00107              topohru00107          hyd00107 SL1_SL3_SL3_3_>100cm_>100cm_N    f107_lum             null              null           snow001              null
     108  hru00108              topohru00108          hyd00108 S1_S1_S1_5_>100cm_>100cm_N    f108_lum             null              null           snow001              null
     109  hru00109              topohru00109          hyd00109 S1_S1_S1_5_>100cm_>100cm_N    f109_lum             null              null           snow001              null
     110  hru00110              topohru00110          hyd00110 LS2_LS2_SL3_3_>100cm_>100cm_N    f110_lum             null              null           snow001              null
     111  hru00111              topohru00111          hyd00111 S3_S3_SL3_4_>100cm_>100cm_N    f111_lum             null              null           snow001              null
     112  hru00112              topohru00112          hyd00112 S3_S3_SL3_3_>100cm_>100cm_N    f112_lum             null              null           snow001              null
     113  hru00113              topohru00113          hyd00113 S3_S3_SL3_3_>100cm_>100cm_N    f113_lum             null              null           snow001              null
     114  hru00114              topohru00114          hyd00114 LS2_LS2_SL3_2_>100cm_>100cm_N    f114_lum             null              null           snow001              null
     115  hru00115              topohru00115          hyd00115 LS2_LS2_SL3_5_>100cm_>100cm_N    f115_lum             null              null           snow001              null
     116  hru00116              topohru00116          hyd00116 LS2_LS2_SL3_2_>100cm_>100cm_N    f116_lum             null              null           snow001              null
     117  hru00117              topohru00117          hyd00117 LS1_LS1_S2_4_>100cm_>100cm_N    f117_lum             null              null           snow001              null
     118  hru00118              topohru00118          hyd00118 S3_S3_SL3_4_>100cm_>100cm_N    f118_lum             null              null           snow001              null
     119  hru00119              topohru00119          hyd00119 S3_S3_SL3_4_>100cm_>100cm_N    f119_lum             null              null           snow001              null
     120  hru00120              topohru00120          hyd00120 Tn_Tn_Tn_6_>100cm_>100cm_N    f120_lum             null              null           snow001              null
     121  hru00121              topohru00121          hyd00121 S2_S2_S2_5_>100cm_>100cm_N    f121_lum             null              null           snow001              null
     122  hru00122              topohru00122          hyd00122 S2_S2_S2_5_>100cm_>100cm_N    f122_lum             null              null           snow001              null
     123  hru00123              topohru00123          hyd00123 Tn_Tn_Tn_6_>100cm_>100cm_N    f123_lum             null              null           snow001              null
     124  hru00124              topohru00124          hyd00124 S3_S1_S1_4_>100cm_>100cm_N    f124_lum             null              null           snow001              null
     125  hru00125              topohru00125          hyd00125 SL3_CL_CL_2_>100cm_>100cm_N    f125_lum             null              null           snow001              null
     126  hru00126              topohru00126          hyd00126 SL1_LS2_SL3_2_>100cm_>100cm_N    f126_lum             null              null           snow001              null
     127  hru00127              topohru00127          hyd00127 SL3_CL_CL_2_>100cm_>100cm_N    f127_lum             null              null           snow001              null
     128  hru00128              topohru00128          hyd00128 SL1_SL3_SL3_2_>100cm_>100cm_N    f128_lum             null              null           snow001              null
     129  hru00129              topohru00129          hyd00129 SL1_SL3_SL3_2_>100cm_>100cm_N    f129_lum             null              null           snow001              null
     130  hru00130              topohru00130          hyd00130 LS2_LS2_SL3_3_>100cm_>100cm_N    f130_lum             null              null           snow001              null
     131  hru00131              topohru00131          hyd00131 S3_S3_S1_2_>100cm_>100cm_N    f131_lum             null              null           snow001              null
     132  hru00132              topohru00132          hyd00132 S3_S3_S1_4_>100cm_>100cm_N    f132_lum             null              null           snow001              null
     133  hru00133              topohru00133          hyd00133 S3_S3_L_3_>100cm_>100cm_N    f133_lum             null              null           snow001              null
     134  hru00134              topohru00134          hyd00134 S3_S3_SL3_3_>100cm_>100cm_N    f134_lum             null              null           snow001              null
     135  hru00135              topohru00135          hyd00135 S3_S3_SL3_3_>100cm_>100cm_N    f135_lum             null              null           snow001              null
     136  hru00136              topohru00136          hyd00136 S3_S3_SL3_3_>100cm_>100cm_N    f136_lum             null              null           snow001              null
     137  hru00137              topohru00137          hyd00137 S3_S3_SL3_3_>100cm_>100cm_N    f137_lum             null              null           snow001              null
     138  hru00138              topohru00138          hyd00138 S3_S3_SL3_3_>100cm_>100cm_N    f138_lum             null              null           snow001              null
     139  hru00139              topohru00139          hyd00139 S3_S3_SL3_3_>100cm_>100cm_N    f139_lum             null              null           snow001              null
     140  hru00140              topohru00140          hyd00140 S3_S3_L_3_>100cm_>100cm_N    f140_lum             null              null           snow001              null
     141  hru00141              topohru00141          hyd00141 S3_S3_L_4_>100cm_>100cm_N    f141_lum             null              null           snow001              null
     142  hru00142              topohru00142          hyd00142 S3_S3_SL3_3_>100cm_>100cm_N    f142_lum             null              null           snow001              null
     143  hru00143              topohru00143          hyd00143 LS2_S3_SL3_3_>100cm_>100cm_N    f143_lum             null              null           snow001              null
     144  hru00144              topohru00144          hyd00144 S2_S2_S2_5_>100cm_>100cm_N    f144_lum             null              null           snow001              null
     145  hru00145              topohru00145          hyd00145 S2_S2_S2_5_>100cm_>100cm_N    f145_lum             null              null           snow001              null
     146  hru00146              topohru00146          hyd00146 LS1_LS1_S2_4_>100cm_>100cm_N    f146_lum             null              null           snow001              null
     147  hru00147              topohru00147          hyd00147 LS1_LS1_S2_4_>100cm_>100cm_N    f147_lum             null              null           snow001              null
     148  hru00148              topohru00148          hyd00148 S2_S2_S2_5_>100cm_>100cm_N    f148_lum             null              null           snow001              null
     149  hru00149              topohru00149          hyd00149 LS1_LS1_S2_4_>100cm_>100cm_N    f149_lum             null              null           snow001              null
     150  hru00150              topohru00150          hyd00150 LS1_LS1_S2_4_>100cm_>100cm_N    f150_lum             null              null           snow001              null
     151  hru00151              topohru00151          hyd00151 S3_S3_SL3_4_>100cm_>100cm_N    f151_lum             null              null           snow001              null
     152  hru00152              topohru00152          hyd00152 LS2_S3_SL3_3_>100cm_>100cm_N    f152_lum             null              null           snow001              null
     153  hru00153              topohru00153          hyd00153 LS1_LS1_S2_4_>100cm_>100cm_N    f153_lum             null              null           snow001              null
     154  hru00154              topohru00154          hyd00154 S3_S3_S1_4_>100cm_>100cm_N    f154_lum             null              null           snow001              null
     155  hru00155              topohru00155          hyd00155 LS1_LS1_S2_4_>100cm_>100cm_N    f155_lum             null              null           snow001              null
     156  hru00156              topohru00156          hyd00156 S3_S3_SL3_4_>100cm_60-100cm_N    f156_lum             null              null           snow001              null
     157  hru00157              topohru00157          hyd00157 LS2_LS2_SL3_3_>100cm_>100cm_N    f157_lum             null              null           snow001              null
     158  hru00158              topohru00158          hyd00158 S2_S2_S2_5_>100cm_>100cm_N    f158_lum             null              null           snow001              null
     159  hru00159              topohru00159          hyd00159 S3_S3_SL3_4_>100cm_>100cm_N    f159_lum             null              null           snow001              null
     160  hru00160              topohru00160          hyd00160 SL1_SL3_SL3_2_>100cm_>100cm_N    f160_lum             null              null           snow001              null
     161  hru00161              topohru00161          hyd00161 SL2_SL2_SL2_2_>100cm_>100cm_N    f161_lum             null              null           snow001              null
     162  hru00162              topohru00162          hyd00162 SL2_SL2_SL2_2_>100cm_>100cm_N    f162_lum             null              null           snow001              null
     163  hru00163              topohru00163          hyd00163 SL2_SL2_SL2_2_>100cm_>100cm_N    f163_lum             null              null           snow001              null
     164  hru00164              topohru00164          hyd00164 SL2_SL2_SL2_2_>100cm_>100cm_N    f164_lum             null              null           snow001              null
     165  hru00165              topohru00165          hyd00165 LS2_LS2_SL3_3_>100cm_>100cm_N    f165_lum             null              null           snow001              null
     166  hru00166              topohru00166          hyd00166 SL2_SL2_SL2_2_>100cm_>100cm_N    f166_lum             null              null           snow001              null
     167  hru00167              topohru00167          hyd00167 S3_S3_S3_4_>100cm_>100cm_N    f167_lum             null              null           snow001              null
     168  hru00168              topohru00168          hyd00168 S1_S1_S1_5_>100cm_60-100cm_N    f168_lum             null              null           snow001              null
     169  hru00169              topohru00169          hyd00169 Emt_Emt_Emt_7_>100cm_>100cm_N    f169_lum             null              null           snow001              null