hydrology.wet: written by SWAT+ editor v2.1.0 on 2023-02-01 16:50 for SWAT+ rev.60.5.4
name                    hru_ps         dp_ps        hru_es         dp_es             k          evap   vol_area_co      vol_dp_a      vol_dp_b      hru_frac  
hydwet03641            0.80000      1500.000       1.00000     1700.0000       0.01000       1.00000       1.00000       1.00000       1.00000       1.00000  
hydwet03825            0.80000      1500.000       1.00000     1700.0000       0.01000       1.00000       1.00000       1.00000       1.00000       1.00000  
hydwet03835            0.80000      1500.000       1.00000     1700.0000       0.01000       1.00000       1.00000       1.00000       1.00000       1.00000  
hydwet03847            0.80000      1500.000       1.00000     1700.0000       0.01000       1.00000       1.00000       1.00000       1.00000       1.00000  
hydwet03853            0.80000      1500.000       1.00000     1700.0000       0.01000       1.00000       1.00000       1.00000       1.00000       1.00000  
hydwet03867            0.80000      1500.000       1.00000     1700.0000       0.01000       1.00000       1.00000       1.00000       1.00000       1.00000  
hydwet03877            0.80000      1500.000       1.00000     1700.0000       0.01000       1.00000       1.00000       1.00000       1.00000       1.00000  
hydwet03884            0.80000      1500.000       1.00000     1700.0000       0.01000       1.00000       1.00000       1.00000       1.00000       1.00000  
hydwet03885            0.80000      1500.000       1.00000     1700.0000       0.01000       1.00000       1.00000       1.00000       1.00000       1.00000  
hydwet03894            0.80000      1500.000       1.00000     1700.0000       0.01000       1.00000       1.00000       1.00000       1.00000       1.00000  
hydwet03908            0.80000      1500.000       1.00000     1700.0000       0.01000       1.00000       1.00000       1.00000       1.00000       1.00000  
hydwet03926            0.80000      1500.000       1.00000     1700.0000       0.01000       1.00000       1.00000       1.00000       1.00000       1.00000  
hydwet03930            0.80000      1500.000       1.00000     1700.0000       0.01000       1.00000       1.00000       1.00000       1.00000       1.00000  
hydwet03931            0.80000      1500.000       1.00000     1700.0000       0.01000       1.00000       1.00000       1.00000       1.00000       1.00000  
hydwet03932            0.80000      1500.000       1.00000     1700.0000       0.01000       1.00000       1.00000       1.00000       1.00000       1.00000  
hydwet03933            0.80000      1500.000       1.00000     1700.0000       0.01000       1.00000       1.00000       1.00000       1.00000       1.00000  
hydwet03935            0.80000      1500.000       1.00000     1700.0000       0.01000       1.00000       1.00000       1.00000       1.00000       1.00000  
hydwet03942            0.80000      1500.000       1.00000     1700.0000       0.01000       1.00000       1.00000       1.00000       1.00000       1.00000  
hydwet03945            0.80000      1500.000       1.00000     1700.0000       0.01000       1.00000       1.00000       1.00000       1.00000       1.00000  
hydwet03946            0.80000      1500.000       1.00000     1700.0000       0.01000       1.00000       1.00000       1.00000       1.00000       1.00000  
hydwet03953            0.80000      1500.000       1.00000     1700.0000       0.01000       1.00000       1.00000       1.00000       1.00000       1.00000  
hydwet03957            0.80000      1500.000       1.00000     1700.0000       0.01000       1.00000       1.00000       1.00000       1.00000       1.00000  
hydwet03964            0.80000      1500.000       1.00000     1700.0000       0.01000       1.00000       1.00000       1.00000       1.00000       1.00000  
hydwet03968            0.80000      1500.000       1.00000     1700.0000       0.01000       1.00000       1.00000       1.00000       1.00000       1.00000  
hydwet03973            0.80000      1500.000       1.00000     1700.0000       0.01000       1.00000       1.00000       1.00000       1.00000       1.00000  
hydwet03981            0.80000      1500.000       1.00000     1700.0000       0.01000       1.00000       1.00000       1.00000       1.00000       1.00000  
hydwet05758            0.80000      1500.000       1.00000     1700.0000       0.01000       1.00000       1.00000       1.00000       1.00000       1.00000  
hydwet07744            0.80000      1500.000       1.00000     1700.0000       0.01000       1.00000       1.00000       1.00000       1.00000       1.00000  
hydwet09729            0.80000      1500.000       1.00000     1700.0000       0.01000       1.00000       1.00000       1.00000       1.00000       1.00000  
hydwet09846            0.80000      1500.000       1.00000     1700.0000       0.01000       1.00000       1.00000       1.00000       1.00000       1.00000  
hydwet09855            0.80000      1500.000       1.00000     1700.0000       0.01000       1.00000       1.00000       1.00000       1.00000       1.00000  
hydwet09871            0.80000      1500.000       1.00000     1700.0000       0.01000       1.00000       1.00000       1.00000       1.00000       1.00000  
hydwet09880            0.80000      1500.000       1.00000     1700.0000       0.01000       1.00000       1.00000       1.00000       1.00000       1.00000  
hydwet09881            0.80000      1500.000       1.00000     1700.0000       0.01000       1.00000       1.00000       1.00000       1.00000       1.00000  
hydwet09910            0.80000      1500.000       1.00000     1700.0000       0.01000       1.00000       1.00000       1.00000       1.00000       1.00000  
hydwet09922            0.80000      1500.000       1.00000     1700.0000       0.01000       1.00000       1.00000       1.00000       1.00000       1.00000  
hydwet09924            0.80000      1500.000       1.00000     1700.0000       0.01000       1.00000       1.00000       1.00000       1.00000       1.00000  
hydwet09926            0.80000      1500.000       1.00000     1700.0000       0.01000       1.00000       1.00000       1.00000       1.00000       1.00000  
hydwet10146            0.80000      1500.000       1.00000     1700.0000       0.01000       1.00000       1.00000       1.00000       1.00000       1.00000  
hydwet10155            0.80000      1500.000       1.00000     1700.0000       0.01000       1.00000       1.00000       1.00000       1.00000       1.00000  
hydwet10159            0.80000      1500.000       1.00000     1700.0000       0.01000       1.00000       1.00000       1.00000       1.00000       1.00000  
hydwet10160            0.80000      1500.000       1.00000     1700.0000       0.01000       1.00000       1.00000       1.00000       1.00000       1.00000  
hydwet10169            0.80000      1500.000       1.00000     1700.0000       0.01000       1.00000       1.00000       1.00000       1.00000       1.00000  
hydwet10193            0.80000      1500.000       1.00000     1700.0000       0.01000       1.00000       1.00000       1.00000       1.00000       1.00000  
hydwet10195            0.80000      1500.000       1.00000     1700.0000       0.01000       1.00000       1.00000       1.00000       1.00000       1.00000  
hydwet10196            0.80000      1500.000       1.00000     1700.0000       0.01000       1.00000       1.00000       1.00000       1.00000       1.00000  
hydwet10197            0.80000      1500.000       1.00000     1700.0000       0.01000       1.00000       1.00000       1.00000       1.00000       1.00000  
hydwet10198            0.80000      1500.000       1.00000     1700.0000       0.01000       1.00000       1.00000       1.00000       1.00000       1.00000  
hydwet10199            0.80000      1500.000       1.00000     1700.0000       0.01000       1.00000       1.00000       1.00000       1.00000       1.00000  
hydwet10200            0.80000      1500.000       1.00000     1700.0000       0.01000       1.00000       1.00000       1.00000       1.00000       1.00000  
hydwet10201            0.80000      1500.000       1.00000     1700.0000       0.01000       1.00000       1.00000       1.00000       1.00000       1.00000  
hydwet10210            0.80000      1500.000       1.00000     1700.0000       0.01000       1.00000       1.00000       1.00000       1.00000       1.00000  
hydwet10211            0.80000      1500.000       1.00000     1700.0000       0.01000       1.00000       1.00000       1.00000       1.00000       1.00000  
hydwet10212            0.80000      1500.000       1.00000     1700.0000       0.01000       1.00000       1.00000       1.00000       1.00000       1.00000  
hydwet10213            0.80000      1500.000       1.00000     1700.0000       0.01000       1.00000       1.00000       1.00000       1.00000       1.00000  
hydwet10214            0.80000      1500.000       1.00000     1700.0000       0.01000       1.00000       1.00000       1.00000       1.00000       1.00000  
hydwet10215            0.80000      1500.000       1.00000     1700.0000       0.01000       1.00000       1.00000       1.00000       1.00000       1.00000  
hydwet10216            0.80000      1500.000       1.00000     1700.0000       0.01000       1.00000       1.00000       1.00000       1.00000       1.00000  
hydwet10219            0.80000      1500.000       1.00000     1700.0000       0.01000       1.00000       1.00000       1.00000       1.00000       1.00000  
hydwet10220            0.80000      1500.000       1.00000     1700.0000       0.01000       1.00000       1.00000       1.00000       1.00000       1.00000  
hydwet10221            0.80000      1500.000       1.00000     1700.0000       0.01000       1.00000       1.00000       1.00000       1.00000       1.00000  
hydwet10222            0.80000      1500.000       1.00000     1700.0000       0.01000       1.00000       1.00000       1.00000       1.00000       1.00000  
hydwet10223            0.80000      1500.000       1.00000     1700.0000       0.01000       1.00000       1.00000       1.00000       1.00000       1.00000  
hydwet10224            0.80000      1500.000       1.00000     1700.0000       0.01000       1.00000       1.00000       1.00000       1.00000       1.00000  
hydwet10225            0.80000      1500.000       1.00000     1700.0000       0.01000       1.00000       1.00000       1.00000       1.00000       1.00000  
hydwet10226            0.80000      1500.000       1.00000     1700.0000       0.01000       1.00000       1.00000       1.00000       1.00000       1.00000  
hydwet10227            0.80000      1500.000       1.00000     1700.0000       0.01000       1.00000       1.00000       1.00000       1.00000       1.00000  
hydwet10228            0.80000      1500.000       1.00000     1700.0000       0.01000       1.00000       1.00000       1.00000       1.00000       1.00000  
hydwet10229            0.80000      1500.000       1.00000     1700.0000       0.01000       1.00000       1.00000       1.00000       1.00000       1.00000  
hydwet10230            0.80000      1500.000       1.00000     1700.0000       0.01000       1.00000       1.00000       1.00000       1.00000       1.00000  
hydwet10231            0.80000      1500.000       1.00000     1700.0000       0.01000       1.00000       1.00000       1.00000       1.00000       1.00000  
hydwet10232            0.80000      1500.000       1.00000     1700.0000       0.01000       1.00000       1.00000       1.00000       1.00000       1.00000  
hydwet10235            0.80000      1500.000       1.00000     1700.0000       0.01000       1.00000       1.00000       1.00000       1.00000       1.00000  
hydwet10236            0.80000      1500.000       1.00000     1700.0000       0.01000       1.00000       1.00000       1.00000       1.00000       1.00000  
hydwet10237            0.80000      1500.000       1.00000     1700.0000       0.01000       1.00000       1.00000       1.00000       1.00000       1.00000  
hydwet10238            0.80000      1500.000       1.00000     1700.0000       0.01000       1.00000       1.00000       1.00000       1.00000       1.00000  
hydwet10239            0.80000      1500.000       1.00000     1700.0000       0.01000       1.00000       1.00000       1.00000       1.00000       1.00000  
hydwet10240            0.80000      1500.000       1.00000     1700.0000       0.01000       1.00000       1.00000       1.00000       1.00000       1.00000  
