landuse.lum: written by SWAT+ editor v2.1.0 on 2023-02-01 11:31 for SWAT+ rev.60.5.4 and edited with SWATfarmR 2.0.0 on 2023-02-05 12:48:33, edited manually on 2023-03-06 13:03:21
name                         cal_group          plnt_com               mgt               cn2         cons_prac             urban            urb_ro           ov_mann              tile               sep               vfs              grww               bmp
f1_lum                            null           f1_comm            f1_mgt        rc_strow_g     up_down_slope              null              null    convtill_nores              null              null              null              null              null
f10_lum                           null          f10_comm           f10_mgt        rc_strow_g     up_down_slope              null              null    convtill_nores              null              null              null              null              null
f100_lum                          null         f100_comm          f100_mgt        rc_strow_g     up_down_slope              null              null    convtill_nores              null              null              null              null              null
f1000_lum                         null        f1000_comm         f1000_mgt        rc_strow_g     up_down_slope              null              null    convtill_nores              null              null              null              null              null
f1002_lum                         null        f1002_comm         f1002_mgt        rc_strow_g     up_down_slope              null              null    convtill_nores              null              null              null              null              null
f1003_lum                         null        f1003_comm         f1003_mgt        rc_strow_g     up_down_slope              null              null    convtill_nores              null              null              null              null              null
f1004_lum                         null        f1004_comm         f1004_mgt        rc_strow_g     up_down_slope              null              null    convtill_nores              null              null              null              null              null
agrl_drn_lum                      null     agrl_drn_comm      agrl_drn_mgt           brush_f     up_down_slope              null              null        densegrass         mw24_1000              null              null              null              null
f1005_lum                         null        f1005_comm         f1005_mgt        rc_strow_g     up_down_slope              null              null    convtill_nores              null              null              null              null              null
agrl_lum                          null         agrl_comm          agrl_mgt           brush_f     up_down_slope              null              null        densegrass              null              null              null              null              null
f1006_lum                         null        f1006_comm         f1006_mgt        rc_strow_g     up_down_slope              null              null    convtill_nores              null              null              null              null              null
f1007_lum                         null        f1007_comm         f1007_mgt        rc_strow_g     up_down_slope              null              null    convtill_nores              null              null              null              null              null
f1008_lum                         null        f1008_comm         f1008_mgt        rc_strow_g     up_down_slope              null              null    convtill_nores              null              null              null              null              null
f1009_lum                         null        f1009_comm         f1009_mgt        rc_strow_g     up_down_slope              null              null    convtill_nores              null              null              null              null              null
f101_lum                          null         f101_comm          f101_mgt        rc_strow_g     up_down_slope              null              null    convtill_nores              null              null              null              null              null
f1010_lum                         null        f1010_comm         f1010_mgt        rc_strow_g     up_down_slope              null              null    convtill_nores              null              null              null              null              null
f1011_lum                         null        f1011_comm         f1011_mgt        rc_strow_g     up_down_slope              null              null    convtill_nores              null              null              null              null              null
f1014_lum                         null        f1014_comm         f1014_mgt        rc_strow_g     up_down_slope              null              null    convtill_nores              null              null              null              null              null
f1015_lum                         null        f1015_comm         f1015_mgt        rc_strow_g     up_down_slope              null              null    convtill_nores              null              null              null              null              null
f1016_lum                         null        f1016_comm         f1016_mgt        rc_strow_g     up_down_slope              null              null    convtill_nores              null              null              null              null              null
f1017_lum                         null        f1017_comm         f1017_mgt        rc_strow_g     up_down_slope              null              null    convtill_nores              null              null              null              null              null
f1018_lum                         null        f1018_comm         f1018_mgt        rc_strow_g     up_down_slope              null              null    convtill_nores              null              null              null              null              null
f1019_lum                         null        f1019_comm         f1019_mgt        rc_strow_g     up_down_slope              null              null    convtill_nores              null              null              null              null              null
f102_lum                          null         f102_comm          f102_mgt        rc_strow_g     up_down_slope              null              null    convtill_nores              null              null              null              null              null
f1020_lum                         null        f1020_comm         f1020_mgt        rc_strow_g     up_down_slope              null              null    convtill_nores              null              null              null              null              null
f1021_lum                         null        f1021_comm         f1021_mgt        rc_strow_g     up_down_slope              null              null    convtill_nores              null              null              null              null              null
f1022_lum                         null        f1022_comm         f1022_mgt        rc_strow_g     up_down_slope              null              null    convtill_nores              null              null              null              null              null
f1023_lum                         null        f1023_comm         f1023_mgt        rc_strow_g     up_down_slope              null              null    convtill_nores              null              null              null              null              null
f1024_lum                         null        f1024_comm         f1024_mgt        rc_strow_g     up_down_slope              null              null    convtill_nores              null              null              null              null              null
f1025_lum                         null        f1025_comm         f1025_mgt        rc_strow_g     up_down_slope              null              null    convtill_nores              null              null              null              null              null
f1026_lum                         null        f1026_comm         f1026_mgt        rc_strow_g     up_down_slope              null              null    convtill_nores              null              null              null              null              null
f1027_lum                         null        f1027_comm         f1027_mgt        rc_strow_g     up_down_slope              null              null    convtill_nores              null              null              null              null              null
f1029_lum                         null        f1029_comm         f1029_mgt        rc_strow_g     up_down_slope              null              null    convtill_nores              null              null              null              null              null
f103_lum                          null         f103_comm          f103_mgt        rc_strow_g     up_down_slope              null              null    convtill_nores              null              null              null              null              null
f1030_lum                         null        f1030_comm         f1030_mgt        rc_strow_g     up_down_slope              null              null    convtill_nores              null              null              null              null              null
f1031_lum                         null        f1031_comm         f1031_mgt        rc_strow_g     up_down_slope              null              null    convtill_nores              null              null              null              null              null
f10306_drn_lum                    null   f10306_drn_comm    f10306_drn_mgt        rc_strow_g     up_down_slope              null              null    convtill_nores         mw24_1000              null              null              null              null
f10307_drn_lum                    null   f10307_drn_comm    f10307_drn_mgt        rc_strow_g     up_down_slope              null              null    convtill_nores         mw24_1000              null              null              null              null
f10309_drn_lum                    null   f10309_drn_comm    f10309_drn_mgt        rc_strow_g     up_down_slope              null              null    convtill_nores         mw24_1000              null              null              null              null
f1032_lum                         null        f1032_comm         f1032_mgt        rc_strow_g     up_down_slope              null              null    convtill_nores              null              null              null              null              null
f10310_drn_lum                    null   f10310_drn_comm    f10310_drn_mgt        rc_strow_g     up_down_slope              null              null    convtill_nores         mw24_1000              null              null              null              null
f10311_drn_lum                    null   f10311_drn_comm    f10311_drn_mgt        rc_strow_g     up_down_slope              null              null    convtill_nores         mw24_1000              null              null              null              null
f10312_drn_lum                    null   f10312_drn_comm    f10312_drn_mgt        rc_strow_g     up_down_slope              null              null    convtill_nores         mw24_1000              null              null              null              null
f10313_drn_lum                    null   f10313_drn_comm    f10313_drn_mgt        rc_strow_g     up_down_slope              null              null    convtill_nores         mw24_1000              null              null              null              null
f10316_drn_lum                    null   f10316_drn_comm    f10316_drn_mgt        rc_strow_g     up_down_slope              null              null    convtill_nores         mw24_1000              null              null              null              null
f10317_drn_lum                    null   f10317_drn_comm    f10317_drn_mgt        rc_strow_g     up_down_slope              null              null    convtill_nores         mw24_1000              null              null              null              null
f10318_drn_lum                    null   f10318_drn_comm    f10318_drn_mgt        rc_strow_g     up_down_slope              null              null    convtill_nores         mw24_1000              null              null              null              null
f10319_drn_lum                    null   f10319_drn_comm    f10319_drn_mgt        rc_strow_g     up_down_slope              null              null    convtill_nores         mw24_1000              null              null              null              null
f1033_lum                         null        f1033_comm         f1033_mgt        rc_strow_g     up_down_slope              null              null    convtill_nores              null              null              null              null              null
f10320_drn_lum                    null   f10320_drn_comm    f10320_drn_mgt        rc_strow_g     up_down_slope              null              null    convtill_nores         mw24_1000              null              null              null              null
f10321_drn_lum                    null   f10321_drn_comm    f10321_drn_mgt        rc_strow_g     up_down_slope              null              null    convtill_nores         mw24_1000              null              null              null              null
f10322_drn_lum                    null   f10322_drn_comm    f10322_drn_mgt        rc_strow_g     up_down_slope              null              null    convtill_nores         mw24_1000              null              null              null              null
f10323_drn_lum                    null   f10323_drn_comm    f10323_drn_mgt        rc_strow_g     up_down_slope              null              null    convtill_nores         mw24_1000              null              null              null              null
f10324_drn_lum                    null   f10324_drn_comm    f10324_drn_mgt        rc_strow_g     up_down_slope              null              null    convtill_nores         mw24_1000              null              null              null              null
f10325_drn_lum                    null   f10325_drn_comm    f10325_drn_mgt        rc_strow_g     up_down_slope              null              null    convtill_nores         mw24_1000              null              null              null              null
f10327_drn_lum                    null   f10327_drn_comm    f10327_drn_mgt        rc_strow_g     up_down_slope              null              null    convtill_nores         mw24_1000              null              null              null              null
f10328_drn_lum                    null   f10328_drn_comm    f10328_drn_mgt        rc_strow_g     up_down_slope              null              null    convtill_nores         mw24_1000              null              null              null              null
f1034_lum                         null        f1034_comm         f1034_mgt        rc_strow_g     up_down_slope              null              null    convtill_nores              null              null              null              null              null
f10331_drn_lum                    null   f10331_drn_comm    f10331_drn_mgt        rc_strow_g     up_down_slope              null              null    convtill_nores         mw24_1000              null              null              null              null
f10333_drn_lum                    null   f10333_drn_comm    f10333_drn_mgt        rc_strow_g     up_down_slope              null              null    convtill_nores         mw24_1000              null              null              null              null
f10334_drn_lum                    null   f10334_drn_comm    f10334_drn_mgt        rc_strow_g     up_down_slope              null              null    convtill_nores         mw24_1000              null              null              null              null
f1035_lum                         null        f1035_comm         f1035_mgt        rc_strow_g     up_down_slope              null              null    convtill_nores              null              null              null              null              null
f10335_drn_lum                    null   f10335_drn_comm    f10335_drn_mgt        rc_strow_g     up_down_slope              null              null    convtill_nores         mw24_1000              null              null              null              null
f10337_drn_lum                    null   f10337_drn_comm    f10337_drn_mgt        rc_strow_g     up_down_slope              null              null    convtill_nores         mw24_1000              null              null              null              null
f10338_drn_lum                    null   f10338_drn_comm    f10338_drn_mgt        rc_strow_g     up_down_slope              null              null    convtill_nores         mw24_1000              null              null              null              null
f10339_drn_lum                    null   f10339_drn_comm    f10339_drn_mgt        rc_strow_g     up_down_slope              null              null    convtill_nores         mw24_1000              null              null              null              null
f1036_lum                         null        f1036_comm         f1036_mgt        rc_strow_g     up_down_slope              null              null    convtill_nores              null              null              null              null              null
f10340_drn_lum                    null   f10340_drn_comm    f10340_drn_mgt        rc_strow_g     up_down_slope              null              null    convtill_nores         mw24_1000              null              null              null              null
f10341_drn_lum                    null   f10341_drn_comm    f10341_drn_mgt        rc_strow_g     up_down_slope              null              null    convtill_nores         mw24_1000              null              null              null              null
f10349_drn_lum                    null   f10349_drn_comm    f10349_drn_mgt        rc_strow_g     up_down_slope              null              null    convtill_nores         mw24_1000              null              null              null              null
f10357_drn_lum                    null   f10357_drn_comm    f10357_drn_mgt        rc_strow_g     up_down_slope              null              null    convtill_nores         mw24_1000              null              null              null              null
f10358_drn_lum                    null   f10358_drn_comm    f10358_drn_mgt        rc_strow_g     up_down_slope              null              null    convtill_nores         mw24_1000              null              null              null              null
f10359_drn_lum                    null   f10359_drn_comm    f10359_drn_mgt        rc_strow_g     up_down_slope              null              null    convtill_nores         mw24_1000              null              null              null              null
f1037_lum                         null        f1037_comm         f1037_mgt        rc_strow_g     up_down_slope              null              null    convtill_nores              null              null              null              null              null
f10360_drn_lum                    null   f10360_drn_comm    f10360_drn_mgt        rc_strow_g     up_down_slope              null              null    convtill_nores         mw24_1000              null              null              null              null
f10361_drn_lum                    null   f10361_drn_comm    f10361_drn_mgt        rc_strow_g     up_down_slope              null              null    convtill_nores         mw24_1000              null              null              null              null
f10362_drn_lum                    null   f10362_drn_comm    f10362_drn_mgt        rc_strow_g     up_down_slope              null              null    convtill_nores         mw24_1000              null              null              null              null
f10365_drn_lum                    null   f10365_drn_comm    f10365_drn_mgt        rc_strow_g     up_down_slope              null              null    convtill_nores         mw24_1000              null              null              null              null
f10366_drn_lum                    null   f10366_drn_comm    f10366_drn_mgt        rc_strow_g     up_down_slope              null              null    convtill_nores         mw24_1000              null              null              null              null
f1038_lum                         null        f1038_comm         f1038_mgt        rc_strow_g     up_down_slope              null              null    convtill_nores              null              null              null              null              null
f10367_drn_lum                    null   f10367_drn_comm    f10367_drn_mgt        rc_strow_g     up_down_slope              null              null    convtill_nores         mw24_1000              null              null              null              null
f10368_drn_lum                    null   f10368_drn_comm    f10368_drn_mgt        rc_strow_g     up_down_slope              null              null    convtill_nores         mw24_1000              null              null              null              null
f10369_drn_lum                    null   f10369_drn_comm    f10369_drn_mgt        rc_strow_g     up_down_slope              null              null    convtill_nores         mw24_1000              null              null              null              null
f10370_drn_lum                    null   f10370_drn_comm    f10370_drn_mgt        rc_strow_g     up_down_slope              null              null    convtill_nores         mw24_1000              null              null              null              null
f1039_lum                         null        f1039_comm         f1039_mgt        rc_strow_g     up_down_slope              null              null    convtill_nores              null              null              null              null              null
f10375_drn_lum                    null   f10375_drn_comm    f10375_drn_mgt        rc_strow_g     up_down_slope              null              null    convtill_nores         mw24_1000              null              null              null              null
f10378_drn_lum                    null   f10378_drn_comm    f10378_drn_mgt        rc_strow_g     up_down_slope              null              null    convtill_nores         mw24_1000              null              null              null              null
f10379_drn_lum                    null   f10379_drn_comm    f10379_drn_mgt        rc_strow_g     up_down_slope              null              null    convtill_nores         mw24_1000              null              null              null              null
f10380_drn_lum                    null   f10380_drn_comm    f10380_drn_mgt        rc_strow_g     up_down_slope              null              null    convtill_nores         mw24_1000              null              null              null              null
f1040_lum                         null        f1040_comm         f1040_mgt        rc_strow_g     up_down_slope              null              null    convtill_nores              null              null              null              null              null
f10381_drn_lum                    null   f10381_drn_comm    f10381_drn_mgt        rc_strow_g     up_down_slope              null              null    convtill_nores         mw24_1000              null              null              null              null
f10382_drn_lum                    null   f10382_drn_comm    f10382_drn_mgt        rc_strow_g     up_down_slope              null              null    convtill_nores         mw24_1000              null              null              null              null
f10384_drn_lum                    null   f10384_drn_comm    f10384_drn_mgt        rc_strow_g     up_down_slope              null              null    convtill_nores         mw24_1000              null              null              null              null
f1041_lum                         null        f1041_comm         f1041_mgt        rc_strow_g     up_down_slope              null              null    convtill_nores              null              null              null              null              null
f10392_drn_lum                    null   f10392_drn_comm    f10392_drn_mgt        rc_strow_g     up_down_slope              null              null    convtill_nores         mw24_1000              null              null              null              null
f10393_drn_lum                    null   f10393_drn_comm    f10393_drn_mgt        rc_strow_g     up_down_slope              null              null    convtill_nores         mw24_1000              null              null              null              null
f10395_drn_lum                    null   f10395_drn_comm    f10395_drn_mgt        rc_strow_g     up_down_slope              null              null    convtill_nores         mw24_1000              null              null              null              null
f10396_drn_lum                    null   f10396_drn_comm    f10396_drn_mgt        rc_strow_g     up_down_slope              null              null    convtill_nores         mw24_1000              null              null              null              null
f10406_drn_lum                    null   f10406_drn_comm    f10406_drn_mgt        rc_strow_g     up_down_slope              null              null    convtill_nores         mw24_1000              null              null              null              null
f10407_drn_lum                    null   f10407_drn_comm    f10407_drn_mgt        rc_strow_g     up_down_slope              null              null    convtill_nores         mw24_1000              null              null              null              null
f1042_lum                         null        f1042_comm         f1042_mgt        rc_strow_g     up_down_slope              null              null    convtill_nores              null              null              null              null              null
f10411_drn_lum                    null   f10411_drn_comm    f10411_drn_mgt        rc_strow_g     up_down_slope              null              null    convtill_nores         mw24_1000              null              null              null              null
f10412_drn_lum                    null   f10412_drn_comm    f10412_drn_mgt        rc_strow_g     up_down_slope              null              null    convtill_nores         mw24_1000              null              null              null              null
f10413_drn_lum                    null   f10413_drn_comm    f10413_drn_mgt        rc_strow_g     up_down_slope              null              null    convtill_nores         mw24_1000              null              null              null              null
f1043_lum                         null        f1043_comm         f1043_mgt        rc_strow_g     up_down_slope              null              null    convtill_nores              null              null              null              null              null
f10414_drn_lum                    null   f10414_drn_comm    f10414_drn_mgt        rc_strow_g     up_down_slope              null              null    convtill_nores         mw24_1000              null              null              null              null
f1044_lum                         null        f1044_comm         f1044_mgt        rc_strow_g     up_down_slope              null              null    convtill_nores              null              null              null              null              null
f10416_drn_lum                    null   f10416_drn_comm    f10416_drn_mgt        rc_strow_g     up_down_slope              null              null    convtill_nores         mw24_1000              null              null              null              null
f10417_drn_lum                    null   f10417_drn_comm    f10417_drn_mgt        rc_strow_g     up_down_slope              null              null    convtill_nores         mw24_1000              null              null              null              null
f1046_lum                         null        f1046_comm         f1046_mgt        rc_strow_g     up_down_slope              null              null    convtill_nores              null              null              null              null              null
f10418_drn_lum                    null   f10418_drn_comm    f10418_drn_mgt        rc_strow_g     up_down_slope              null              null    convtill_nores         mw24_1000              null              null              null              null
f1047_lum                         null        f1047_comm         f1047_mgt        rc_strow_g     up_down_slope              null              null    convtill_nores              null              null              null              null              null
f10419_drn_lum                    null   f10419_drn_comm    f10419_drn_mgt        rc_strow_g     up_down_slope              null              null    convtill_nores         mw24_1000              null              null              null              null
f1048_lum                         null        f1048_comm         f1048_mgt        rc_strow_g     up_down_slope              null              null    convtill_nores              null              null              null              null              null
f1049_lum                         null        f1049_comm         f1049_mgt        rc_strow_g     up_down_slope              null              null    convtill_nores              null              null              null              null              null