object.cnt: written by SWAT+ editor v2.1.0 on 2023-02-01 16:49 for SWAT+ rev.60.5.4
name                   ls_area      tot_area       obj       hru      lhru       rtu       mfl       aqu       cha       res       rec      exco       dlr       can       pmp       out      lcha     aqu2d       hrd       wro  
cs4_project_v2     15005.74490   15005.74490     20638     10240         0     10240         0         1         0        27         2         0         0         0         0         0       128         0         0         0  
