recall.con: written by SWAT+ editor v2.1.0 on 2023-02-01 16:50 for SWAT+ rev.60.5.4
      id  name                gis_id          area           lat           lon          elev       rec               wst       cst      ovfl      rule   out_tot       obj_typ    obj_id       hyd_typ          frac  
       1  id1                      0       0.00001      52.62527      18.73177      90.89000         1              null         0         0         0         1           sdc        24           tot       1.00000  
       2  id2                      0       0.00001      52.57165      18.62141      91.25000         2              null         0         0         0         1           sdc         9           tot       1.00000  
