snow.sno: written by SWAT+ editor v2.1.0 on 2023-02-01 16:50 for SWAT+ rev.60.5.4
name                  fall_tmp      melt_tmp      melt_max      melt_min       tmp_lag      snow_h2o         cov50     snow_init  
snow001                1.75000       0.3500       4.00000       3.00000       0.09000       1.00000       0.50000       0.00000  
