soils.sol: written by SWAT+ editor v2.1.0 on 2023-02-01 16:50 for SWAT+ rev.60.5.4
name                            nly           hyd_grp        dp_tot    anion_excl      perc_crk  texture                              dp            bd           awc        soil_k        carbon          clay          silt          sand          rock           alb        usle_k            ec         caco3            ph  
Emt_Emt_Emt_1_>100cm_<60cm_N         3                 D    1500.00000       0.50000       0.50000  null                       
                                                                                                                               250.00000       0.65000       0.29000       1.45000      17.70000      50.00000       0.00000       0.00000       0.00000       0.01000       0.01000       0.00000       0.00000       0.00000  
                                                                                                                               750.00000       0.36000       0.47000       2.10000      40.10000      50.00000       0.00000       0.00000       0.00000       0.01000       0.01000       0.00000       0.00000       0.00000  
                                                                                                                              1500.00000       0.15000       0.65000       2.20000      46.30000      50.00000       0.00000       0.00000       0.00000       0.01000       0.01000       0.00000       0.00000       0.00000  
Emt_Emt_Emt_1_>100cm_>100cm_N         3                 C    1500.00000       0.50000       0.50000  null                       
                                                                                                                               250.00000       0.65000       0.29000       1.45000      17.70000      50.00000       0.00000       0.00000       0.00000       0.01000       0.01000       0.00000       0.00000       0.00000  
                                                                                                                               750.00000       0.36000       0.47000       2.10000      40.10000      50.00000       0.00000       0.00000       0.00000       0.01000       0.01000       0.00000       0.00000       0.00000  
                                                                                                                              1500.00000       0.15000       0.65000       2.20000      46.30000      50.00000       0.00000       0.00000       0.00000       0.01000       0.01000       0.00000       0.00000       0.00000  
Emt_Emt_Emt_1_>100cm_>100cm_Y         3                 C    1500.00000       0.50000       0.50000  null                       
                                                                                                                               250.00000       0.65000       0.29000       1.45000      17.70000      50.00000       0.00000       0.00000       0.00000       0.01000       0.01000       0.00000       0.00000       0.00000  
                                                                                                                               750.00000       0.36000       0.47000       2.10000      40.10000      50.00000       0.00000       0.00000       0.00000       0.01000       0.01000       0.00000       0.00000       0.00000  
                                                                                                                              1500.00000       0.15000       0.65000       2.20000      46.30000      50.00000       0.00000       0.00000       0.00000       0.01000       0.01000       0.00000       0.00000       0.00000  
Emt_Emt_Emt_7_>100cm_<60cm_N         3                 D    1500.00000       0.50000       0.50000  null                       
                                                                                                                               250.00000       0.65000       0.29000       1.45000      17.70000      50.00000       0.00000       0.00000       0.00000       0.01000       0.01000       0.00000       0.00000       0.00000  
                                                                                                                               750.00000       0.36000       0.47000       2.10000      40.10000      50.00000       0.00000       0.00000       0.00000       0.01000       0.01000       0.00000       0.00000       0.00000  
                                                                                                                              1500.00000       0.15000       0.65000       2.20000      46.30000      50.00000       0.00000       0.00000       0.00000       0.01000       0.01000       0.00000       0.00000       0.00000  
Emt_Emt_Emt_7_>100cm_<60cm_Y         3                 C    1500.00000       0.50000       0.50000  null                       
                                                                                                                               250.00000       0.65000       0.29000       1.45000      17.70000      50.00000       0.00000       0.00000       0.00000       0.01000       0.01000       0.00000       0.00000       0.00000  
                                                                                                                               750.00000       0.36000       0.47000       2.10000      40.10000      50.00000       0.00000       0.00000       0.00000       0.01000       0.01000       0.00000       0.00000       0.00000  
                                                                                                                              1500.00000       0.15000       0.65000       2.20000      46.30000      50.00000       0.00000       0.00000       0.00000       0.01000       0.01000       0.00000       0.00000       0.00000  
Emt_Emt_Emt_7_>100cm_>100cm_N         3                 C    1500.00000       0.50000       0.50000  null                       
                                                                                                                               250.00000       0.65000       0.29000       1.45000      17.70000      50.00000       0.00000       0.00000       0.00000       0.01000       0.01000       0.00000       0.00000       0.00000  
                                                                                                                               750.00000       0.36000       0.47000       2.10000      40.10000      50.00000       0.00000       0.00000       0.00000       0.01000       0.01000       0.00000       0.00000       0.00000  
                                                                                                                              1500.00000       0.15000       0.65000       2.20000      46.30000      50.00000       0.00000       0.00000       0.00000       0.01000       0.01000       0.00000       0.00000       0.00000  
Emt_Emt_Emt_7_>100cm_>100cm_Y         3                 C    1500.00000       0.50000       0.50000  null                       
                                                                                                                               250.00000       0.65000       0.29000       1.45000      17.70000      50.00000       0.00000       0.00000       0.00000       0.01000       0.01000       0.00000       0.00000       0.00000  
                                                                                                                               750.00000       0.36000       0.47000       2.10000      40.10000      50.00000       0.00000       0.00000       0.00000       0.01000       0.01000       0.00000       0.00000       0.00000  
                                                                                                                              1500.00000       0.15000       0.65000       2.20000      46.30000      50.00000       0.00000       0.00000       0.00000       0.01000       0.01000       0.00000       0.00000       0.00000  
Emt_Emt_Emt_7_>100cm_60-100cm_N         3                 C    1500.00000       0.50000       0.50000  null                       
                                                                                                                               250.00000       0.65000       0.29000       1.45000      17.70000      50.00000       0.00000       0.00000       0.00000       0.01000       0.01000       0.00000       0.00000       0.00000  
                                                                                                                               750.00000       0.36000       0.47000       2.10000      40.10000      50.00000       0.00000       0.00000       0.00000       0.01000       0.01000       0.00000       0.00000       0.00000  
                                                                                                                              1500.00000       0.15000       0.65000       2.20000      46.30000      50.00000       0.00000       0.00000       0.00000       0.01000       0.01000       0.00000       0.00000       0.00000  
Emt_Emt_Emt_7_>100cm_60-100cm_Y         3                 C    1500.00000       0.50000       0.50000  null                       
                                                                                                                               250.00000       0.65000       0.29000       1.45000      17.70000      50.00000       0.00000       0.00000       0.00000       0.01000       0.01000       0.00000       0.00000       0.00000  
                                                                                                                               750.00000       0.36000       0.47000       2.10000      40.10000      50.00000       0.00000       0.00000       0.00000       0.01000       0.01000       0.00000       0.00000       0.00000  
                                                                                                                              1500.00000       0.15000       0.65000       2.20000      46.30000      50.00000       0.00000       0.00000       0.00000       0.01000       0.01000       0.00000       0.00000       0.00000  
L_L_L_2_>100cm_<60cm_Y            3                 C    1500.00000       0.50000       0.50000  null                       
                                                                                                                               250.00000       1.34422       0.20247       1.27847       1.63372      18.22679      29.44857      52.32464       0.00000       0.15851       0.21677       0.00000       0.00000       0.00000  
                                                                                                                               750.00000       1.45476       0.17967       1.70277       0.81395      18.22679      29.44857      52.32464       0.00000       0.16344       0.26136       0.00000       0.00000       0.00000  
                                                                                                                              1500.00000       1.60569       0.14391       0.92795       0.15116      18.22679      29.44857      52.32464       0.00000       0.16967       0.27320       0.00000       0.00000       0.00000  
LS1_LS1_S1_4_>100cm_>100cm_N         3                 C    1500.00000       0.50000       0.50000  null                       
                                                                                                                               250.00000       1.45193       0.17098       2.57451       0.83140       2.46500      10.33000      87.20500       0.00000       0.17364       0.12041       0.00000       0.00000       0.00000  
                                                                                                                               750.00000       1.53111       0.14794       1.53170       0.41279       2.46500      10.33000      87.20500       0.00000       0.18303       0.12537       0.00000       0.00000       0.00000  
                                                                                                                              1500.00000       1.63917       0.09795       7.39777       0.07558       1.15050       3.45700      95.39250       0.00000       0.21529       0.09235       0.00000       0.00000       0.00000  
LS1_LS1_S1_4_>100cm_>100cm_Y         3                 C    1500.00000       0.50000       0.50000  null                       
                                                                                                                               250.00000       1.45193       0.17098       2.57451       0.83140       2.46500      10.33000      87.20500       0.00000       0.17364       0.12041       0.00000       0.00000       0.00000  
                                                                                                                               750.00000       1.53111       0.14794       1.53170       0.41279       2.46500      10.33000      87.20500       0.00000       0.18303       0.12537       0.00000       0.00000       0.00000  
                                                                                                                              1500.00000       1.63917       0.09795       7.39777       0.07558       1.15050       3.45700      95.39250       0.00000       0.21529       0.09235       0.00000       0.00000       0.00000  
LS1_LS1_S1_4_>100cm_60-100cm_Y         3                 C    1500.00000       0.50000       0.50000  null                       
                                                                                                                               250.00000       1.45193       0.17098       2.57451       0.83140       2.46500      10.33000      87.20500       0.00000       0.17364       0.12041       0.00000       0.00000       0.00000  
                                                                                                                               750.00000       1.53111       0.14794       1.53170       0.41279       2.46500      10.33000      87.20500       0.00000       0.18303       0.12537       0.00000       0.00000       0.00000  
                                                                                                                              1500.00000       1.63917       0.09795       7.39777       0.07558       1.15050       3.45700      95.39250       0.00000       0.21529       0.09235       0.00000       0.00000       0.00000  
LS1_LS1_S2_4_>100cm_>100cm_N         3                 C    1500.00000       0.50000       0.50000  null                       
                                                                                                                               250.00000       1.45193       0.17098       2.57451       0.83140       2.46500      10.33000      87.20500       0.00000       0.17364       0.12041       0.00000       0.00000       0.00000  
                                                                                                                               750.00000       1.53111       0.14794       1.53170       0.41279       2.46500      10.33000      87.20500       0.00000       0.18303       0.12537       0.00000       0.00000       0.00000  
                                                                                                                              1500.00000       1.63917       0.10783       4.95806       0.07558       1.97000       6.88000      91.15000       0.00000       0.20913       0.10422       0.00000       0.00000       0.00000  
LS1_LS1_S2_4_>100cm_>100cm_Y         3                 C    1500.00000       0.50000       0.50000  null                       
                                                                                                                               250.00000       1.45193       0.17098       2.57451       0.83140       2.46500      10.33000      87.20500       0.00000       0.17364       0.12041       0.00000       0.00000       0.00000  
                                                                                                                               750.00000       1.53111       0.14794       1.53170       0.41279       2.46500      10.33000      87.20500       0.00000       0.18303       0.12537       0.00000       0.00000       0.00000  
                                                                                                                              1500.00000       1.63917       0.10783       4.95806       0.07558       1.97000       6.88000      91.15000       0.00000       0.20913       0.10422       0.00000       0.00000       0.00000  
LS1_LS1_S2_4_>100cm_60-100cm_N         3                 C    1500.00000       0.50000       0.50000  null                       
                                                                                                                               250.00000       1.45193       0.17098       2.57451       0.83140       2.46500      10.33000      87.20500       0.00000       0.17364       0.12041       0.00000       0.00000       0.00000  
                                                                                                                               750.00000       1.53111       0.14794       1.53170       0.41279       2.46500      10.33000      87.20500       0.00000       0.18303       0.12537       0.00000       0.00000       0.00000  
                                                                                                                              1500.00000       1.63917       0.10783       4.95806       0.07558       1.97000       6.88000      91.15000       0.00000       0.20913       0.10422       0.00000       0.00000       0.00000  
LS1_LS1_S2_4_>100cm_60-100cm_Y         3                 C    1500.00000       0.50000       0.50000  null                       
                                                                                                                               250.00000       1.45193       0.17098       2.57451       0.83140       2.46500      10.33000      87.20500       0.00000       0.17364       0.12041       0.00000       0.00000       0.00000  
                                                                                                                               750.00000       1.53111       0.14794       1.53170       0.41279       2.46500      10.33000      87.20500       0.00000       0.18303       0.12537       0.00000       0.00000       0.00000  
                                                                                                                              1500.00000       1.63917       0.10783       4.95806       0.07558       1.97000       6.88000      91.15000       0.00000       0.20913       0.10422       0.00000       0.00000       0.00000  
LS1_LS1_SL3_4_>100cm_>100cm_N         3                 C    1500.00000       0.50000       0.50000  null                       
                                                                                                                               250.00000       1.45193       0.17098       2.57451       0.83140       2.46500      10.33000      87.20500       0.00000       0.17364       0.12041       0.00000       0.00000       0.00000  
                                                                                                                               750.00000       1.53111       0.14794       1.53170       0.41279       2.46500      10.33000      87.20500       0.00000       0.18303       0.12537       0.00000       0.00000       0.00000  
                                                                                                                              1500.00000       1.63917       0.13939       1.14001       0.07558      12.06641      25.39313      62.54047       0.00000       0.17273       0.25559       0.00000       0.00000       0.00000  
LS1_LS1_SL3_4_>100cm_>100cm_Y         3                 C    1500.00000       0.50000       0.50000  null                       
                                                                                                                               250.00000       1.45193       0.17098       2.57451       0.83140       2.46500      10.33000      87.20500       0.00000       0.17364       0.12041       0.00000       0.00000       0.00000  
                                                                                                                               750.00000       1.53111       0.14794       1.53170       0.41279       2.46500      10.33000      87.20500       0.00000       0.18303       0.12537       0.00000       0.00000       0.00000  
                                                                                                                              1500.00000       1.63917       0.13939       1.14001       0.07558      12.06641      25.39313      62.54047       0.00000       0.17273       0.25559       0.00000       0.00000       0.00000  
LS2_L_L_3_>100cm_>100cm_Y         3                 C    1500.00000       0.50000       0.50000  null                       
                                                                                                                               250.00000       1.39053       0.18426       3.03640       1.25581       4.44529      14.84059      80.71412       0.00000       0.16759       0.14919       0.00000       0.00000       0.00000  
                                                                                                                               750.00000       1.48703       0.17379       1.53712       0.62791      18.22679      29.44857      52.32464       0.00000       0.16469       0.26754       0.00000       0.00000       0.00000  
                                                                                                                              1500.00000       1.61975       0.13936       0.99039       0.11628      18.22679      29.44857      52.32464       0.00000       0.17003       0.27331       0.00000       0.00000       0.00000  
LS2_LS2_L_2_>100cm_>100cm_N         3                 C    1500.00000       0.50000       0.50000  null                       
                                                                                                                               250.00000       1.34422       0.17529       2.87331       1.63372       4.44529      14.84059      80.71412       0.00000       0.16777       0.13717       0.00000       0.00000       0.00000  
                                                                                                                               750.00000       1.45476       0.18099       2.22271       0.81395       4.44529      14.84059      80.71412       0.00000       0.16955       0.16539       0.00000       0.00000       0.00000  
                                                                                                                              1500.00000       1.60569       0.14391       0.92795       0.15116      18.22679      29.44857      52.32464       0.00000       0.16967       0.27320       0.00000       0.00000       0.00000  
LS2_LS2_L_2_>100cm_>100cm_Y         3                 C    1500.00000       0.50000       0.50000  null                       
                                                                                                                               250.00000       1.34422       0.17529       2.87331       1.63372       4.44529      14.84059      80.71412       0.00000       0.16777       0.13717       0.00000       0.00000       0.00000  
                                                                                                                               750.00000       1.45476       0.18099       2.22271       0.81395       4.44529      14.84059      80.71412       0.00000       0.16955       0.16539       0.00000       0.00000       0.00000  
                                                                                                                              1500.00000       1.60569       0.14391       0.92795       0.15116      18.22679      29.44857      52.32464       0.00000       0.16967       0.27320       0.00000       0.00000       0.00000  
LS2_LS2_L_3_>100cm_>100cm_N         3                 C    1500.00000       0.50000       0.50000  null                       
                                                                                                                               250.00000       1.39053       0.18426       3.03640       1.25581       4.44529      14.84059      80.71412       0.00000       0.16759       0.14919       0.00000       0.00000       0.00000  
                                                                                                                               750.00000       1.48703       0.17895       2.03987       0.62791       4.44529      14.84059      80.71412       0.00000       0.17094       0.16930       0.00000       0.00000       0.00000  
                                                                                                                              1500.00000       1.61975       0.13936       0.99039       0.11628      18.22679      29.44857      52.32464       0.00000       0.17003       0.27331       0.00000       0.00000       0.00000  
LS2_LS2_L_3_>100cm_>100cm_Y         3                 C    1500.00000       0.50000       0.50000  null                       
                                                                                                                               250.00000       1.39053       0.18426       3.03640       1.25581       4.44529      14.84059      80.71412       0.00000       0.16759       0.14919       0.00000       0.00000       0.00000  
                                                                                                                               750.00000       1.48703       0.17895       2.03987       0.62791       4.44529      14.84059      80.71412       0.00000       0.17094       0.16930       0.00000       0.00000       0.00000  
                                                                                                                              1500.00000       1.61975       0.13936       0.99039       0.11628      18.22679      29.44857      52.32464       0.00000       0.17003       0.27331       0.00000       0.00000       0.00000  
LS2_LS2_L_5_>100cm_>100cm_Y         3                 C    1500.00000       0.50000       0.50000  null                       
                                                                                                                               250.00000       1.48703       0.17895       2.03987       0.62791       4.44529      14.84059      80.71412       0.00000       0.17094       0.16930       0.00000       0.00000       0.00000  
                                                                                                                               750.00000       1.55527       0.15162       1.63872       0.31395       4.44529      14.84059      80.71412       0.00000       0.18122       0.17231       0.00000       0.00000       0.00000  
                                                                                                                              1500.00000       1.64911       0.12310       0.77662       0.05814      18.22679      29.44857      52.32464       0.00000       0.17328       0.27347       0.00000       0.00000       0.00000  
LS2_LS2_LS2_3_>100cm_>100cm_Y         3                 B    1500.00000       0.50000       0.50000  null                       
                                                                                                                               250.00000       1.39053       0.18426       3.03640       1.25581       4.44529      14.84059      80.71412       0.00000       0.16759       0.14919       0.00000       0.00000       0.00000  
                                                                                                                               750.00000       1.48703       0.17895       2.03987       0.62791       4.44529      14.84059      80.71412       0.00000       0.17094       0.16930       0.00000       0.00000       0.00000  
                                                                                                                              1500.00000       1.61975       0.14909       4.85023       0.11628       4.44529      14.84059      80.71412       0.00000       0.18297       0.17295       0.00000       0.00000       0.00000  
LS2_LS2_S1_2_>100cm_>100cm_Y         3                 B    1500.00000       0.50000       0.50000  null                       
                                                                                                                               250.00000       1.34422       0.17529       2.87331       1.63372       4.44529      14.84059      80.71412       0.00000       0.16777       0.13717       0.00000       0.00000       0.00000  
                                                                                                                               750.00000       1.45476       0.18099       2.22271       0.81395       4.44529      14.84059      80.71412       0.00000       0.16955       0.16539       0.00000       0.00000       0.00000  
                                                                                                                              1500.00000       1.60569       0.12061       7.29318       0.15116       1.15050       3.45700      95.39250       0.00000       0.19852       0.09227       0.00000       0.00000       0.00000  
LS2_LS2_S1_2_>100cm_60-100cm_Y         3                 C    1500.00000       0.50000       0.50000  null                       