time.sim: written by SWAT+ editor v2.1.0 on 2023-02-01 11:30 for SWAT+ rev.60.5.4
day_start  yrc_start   day_end   yrc_end      step  
        0       2003         0      2022         0
