weather-wgn.cli: written by SWAT+ editor v2.1.0 on 2023-03-17 15:51 for SWAT+ rev.2.1.4
ID1                            52.66000      18.60000      89.90000        26  
 tmp_max_ave   tmp_min_ave    tmp_max_sd    tmp_min_sd       pcp_ave        pcp_sd      pcp_skew       wet_dry       wet_wet      pcp_days       pcp_hhr       slr_ave       dew_ave       wnd_ave  
     1.60541      -3.31178       4.87065       5.73831       1.00507       1.80356       3.45020       0.44974       0.86062      23.73077       6.53953       2.45629       0.87696       4.41299  
     3.44442      -2.70884       4.82801       5.30480       0.93315       1.95158       3.92114       0.47768       0.77801      18.53846       6.66794       5.21512       0.84380       4.38852  
     8.00856      -0.51580       5.04090       4.22553       0.92742       2.15723       4.11593       0.34375       0.75604      17.50000       7.58620      10.10033       0.77560       4.31338  
    14.93698       3.62712       5.16713       3.68507       0.89749       2.32544       5.40235       0.32523       0.74347      16.19231      10.37252      16.83233       0.69932       4.07624  
    20.06537       8.02245       4.77607       3.66969       1.69813       3.96449       4.29551       0.37716       0.77366      18.69231      17.10276      20.40093       0.68672       3.67556  
    23.59799      11.39661       4.52465       3.16286       1.85687       4.32474       4.51356       0.45848       0.72939      18.19231      17.29462      22.23115       0.69221       3.46474  
    25.69576      13.57500       4.27491       2.78182       2.73781       5.88308       3.27713       0.48927       0.78782      20.84615      15.97744      20.21330       0.70558       3.38397  
    25.33507      13.19796       4.20242       2.88277       1.69406       3.65114       3.26481       0.43860       0.74286      18.84615      11.89295      17.86172       0.69969       3.31325  
    20.06771       9.30199       4.40168       3.14938       1.35043       3.34802       4.40716       0.35650       0.71599      16.11538      11.96969      12.47389       0.75950       3.52807  
    13.67579       5.46239       4.39923       3.89151       1.13804       2.71074       4.34981       0.40075       0.78937      19.53846       9.32812       6.91508       0.82935       3.74833  
     7.09255       1.82384       4.25687       3.80168       1.04837       2.25655       3.64337       0.56989       0.81028      21.69231       6.93464       2.93483       0.88592       4.02536  
     2.97552      -1.70753       4.37922       4.91438       1.00037       2.04971       3.67157       0.58947       0.80855      22.50000       6.40731       1.87407       0.88879       4.26726  
ID10                           52.63000      18.74000      95.30000        26  
 tmp_max_ave   tmp_min_ave    tmp_max_sd    tmp_min_sd       pcp_ave        pcp_sd      pcp_skew       wet_dry       wet_wet      pcp_days       pcp_hhr       slr_ave       dew_ave       wnd_ave  
     1.59752      -3.36769       4.86877       5.82312       1.02318       1.80294       3.13717       0.44974       0.86062      23.73077       6.28270       2.45550       0.87728       4.41285  
     3.43973      -2.79926       4.81865       5.39725       0.95146       1.89944       3.59373       0.47768       0.77801      18.53846       6.32069       5.21389       0.84439       4.38863  
     8.02672      -0.63428       5.04208       4.29823       0.92328       2.07156       3.85637       0.34375       0.75604      17.50000       6.85790      10.10392       0.77638       4.31317  
    14.96377       3.57059       5.21445       3.74142       0.92130       2.27169       4.82002       0.32523       0.74347      16.19231       9.31673      16.83819       0.70040       4.07625  
    20.12276       7.91707       4.85490       3.71685       1.69869       3.86642       4.09688       0.37716       0.77366      18.69231      15.72936      20.40096       0.68640       3.67553  
    23.65525      11.29610       4.60307       3.21202       1.92738       4.59049       5.27365       0.46377       0.72785      18.23077      21.76663      22.22727       0.69159       3.46491  
    25.73085      13.51059       4.33874       2.84622       2.70637       5.72351       3.24010       0.49569       0.78637      20.88462      15.86081      20.20913       0.70575       3.38437  
    25.36826      13.08834       4.25050       2.89447       1.75964       3.83169       3.35409       0.43662       0.74542      18.88462      11.22505      17.86224       0.69964       3.31285  
    20.09997       9.19149       4.44002       3.20884       1.33781       3.32545       4.37688       0.35650       0.71599      16.11538      11.38386      12.47573       0.75927       3.52773  
    13.67652       5.39603       4.41402       3.94685       1.13486       2.69728       4.41741       0.40000       0.79216      19.61538       9.58457       6.91529       0.82932       3.74833  
     7.10806       1.81438       4.28667       3.86048       1.04037       2.17192       3.54021       0.56284       0.81658      21.80769       7.12992       2.93500       0.88604       4.02508  
     2.96993      -1.74764       4.42954       4.99187       1.01701       2.01574       3.63501       0.58947       0.80855      22.50000       7.29632       1.87439       0.88909       4.26691  
ID11                           52.63000      18.56000      96.10000        26  
 tmp_max_ave   tmp_min_ave    tmp_max_sd    tmp_min_sd       pcp_ave        pcp_sd      pcp_skew       wet_dry       wet_wet      pcp_days       pcp_hhr       slr_ave       dew_ave       wnd_ave  
     1.61457      -3.29222       4.87923       5.71875       0.98649       1.78791       3.57234       0.44974       0.86062      23.73077       6.58892       2.45649       0.87685       4.41293  
     3.45066      -2.68789       4.83106       5.28455       0.91688       1.94440       4.04736       0.47768       0.77801      18.53846       7.09876       5.21545       0.84363       4.38855  
     8.01047      -0.49414       5.03952       4.21068       0.91014       2.14867       4.20278       0.34375       0.75604      17.50000       7.66864      10.09939       0.77537       4.31330  
    14.93553       3.63951       5.16198       3.67789       0.87580       2.30375       5.64160       0.32523       0.74347      16.19231      10.42153      16.83081       0.69899       4.07624  
    20.05677       8.02378       4.78207       3.66031       1.67913       3.91210       4.25388       0.37716       0.77366      18.69231      16.62938      20.40092       0.68680       3.67555  
    23.60068      11.42251       4.52460       3.14592       1.84253       4.29650       4.50472       0.46377       0.72785      18.23077      17.42987      22.23216       0.69238       3.46479  
    25.68043      13.59031       4.26673       2.78388       2.72559       5.88411       3.27668       0.49569       0.78637      20.88462      14.93077      20.21438       0.70551       3.38410  
    25.31978      13.22726       4.19488       2.87220       1.69441       3.69237       3.31167       0.43662       0.74542      18.88462      11.75352      17.86158       0.69972       3.31310  
    20.06167       9.32668       4.39845       3.13481       1.32320       3.29561       4.47219       0.35650       0.71599      16.11538      12.29414      12.47340       0.75956       3.52795  
    13.67317       5.48415       4.39810       3.89068       1.13328       2.72332       4.32104       0.40000       0.79216      19.61538       9.20959       6.91501       0.82937       3.74833  
     7.11112       1.83678       4.25055       3.79399       1.03510       2.24346       3.70875       0.56284       0.81658      21.80769       7.11396       2.93479       0.88589       4.02525  
     2.98818      -1.68791       4.37659       4.89662       0.98589       2.02042       3.78245       0.58947       0.80855      22.50000       6.92172       1.87399       0.88871       4.26714  
ID12                           52.63000      18.59000      92.60000        26  
 tmp_max_ave   tmp_min_ave    tmp_max_sd    tmp_min_sd       pcp_ave        pcp_sd      pcp_skew       wet_dry       wet_wet      pcp_days       pcp_hhr       slr_ave       dew_ave       wnd_ave  
     1.61119      -3.29998       4.87948       5.74058       0.99924       1.79011       3.51101       0.44974       0.86062      23.73077       6.59119       2.45603       0.87704       4.41290  
     3.44844      -2.70366       4.83219       5.30293       0.92599       1.92075       3.93682       0.47768       0.77801      18.53846       6.82067       5.21474       0.84397       4.38858  
     8.01680      -0.51993       5.04425       4.22586       0.91924       2.13269       4.12236       0.34375       0.75604      17.50000       7.46349      10.10147       0.77582       4.31325  
    14.94525       3.62963       5.17620       3.69280       0.89241       2.30442       5.50150       0.32523       0.74347      16.19231      10.33491      16.83419       0.69960       4.07624  
    20.07900       8.00253       4.80389       3.66985       1.68410       3.86443       4.20760       0.37716       0.77366      18.69231      16.42461      20.40093       0.68661       3.67554  
    23.61820      11.39513       4.55154       3.16004       1.86579       4.34788       4.74242       0.46377       0.72785      18.23077      19.04528      22.22991       0.69204       3.46485  
    25.70046      13.57564       4.28850       2.79790       2.72304       5.73282       3.10816       0.49569       0.78637      20.88462      13.89208      20.21197       0.70562       3.38421  
    25.33745      13.20193       4.21369       2.87686       1.70732       3.64865       3.27347       0.43662       0.74542      18.88462      11.71249      17.86188       0.69969       3.31300  
    20.07702       9.30380       4.41461       3.15015       1.33368       3.28246       4.37703       0.35650       0.71599      16.11538      11.79835      12.47447       0.75943       3.52787  
    13.67788       5.47041       4.40535       3.90243       1.13810       2.70995       4.33315       0.40000       0.79216      19.61538       9.25366       6.91515       0.82934       3.74833  
     7.11411       1.83674       4.25904       3.80727       1.04129       2.22378       3.67135       0.56284       0.81658      21.80769       7.05166       2.93488       0.88595       4.02518  
     2.98449      -1.69389       4.38909       4.91382       0.99540       1.99945       3.59247       0.58947       0.80855      22.50000       6.24053       1.87418       0.88887       4.26704  
ID13                           52.63000      18.62000      91.40000        26  
 tmp_max_ave   tmp_min_ave    tmp_max_sd    tmp_min_sd       pcp_ave        pcp_sd      pcp_skew       wet_dry       wet_wet      pcp_days       pcp_hhr       slr_ave       dew_ave       wnd_ave  
     1.60928      -3.30973       4.87976       5.76415       1.00700       1.79787       3.44924       0.44974       0.86062      23.73077       6.57486       2.45567       0.87720       4.41287  
     3.44638      -2.72242       4.83205       5.32552       0.93137       1.90377       3.83818       0.47768       0.77801      18.53846       6.61817       5.21417       0.84425       4.38861  
     8.02304      -0.54922       5.04656       4.24609       0.92398       2.11740       4.04435       0.34375       0.75604      17.50000       7.25453      10.10313       0.77619       4.31320  
    14.95617       3.61411       5.19166       3.71187       0.90674       2.31116       5.33421       0.32523       0.74347      16.19231      10.21105      16.83691       0.70014       4.07625  
    20.10128       7.97396       4.83049       3.68437       1.68578       3.83465       4.14242       0.37716       0.77366      18.69231      16.11877      20.40095       0.68647       3.67554  
    23.63914      11.36558       4.58136       3.17641       1.89121       4.47983       5.12033       0.46377       0.72785      18.23077      21.21879      22.22812       0.69175       3.46489  
    25.71710      13.55683       4.31044       2.81636       2.72117       5.68317       3.04093       0.49569       0.78637      20.88462      13.16491      20.21002       0.70570       3.38431  
    25.35329      13.17254       4.23335       2.88167       1.72177       3.66247       3.28662       0.43662       0.74542      18.88462      11.64030      17.86212       0.69966       3.31291  
    20.09145       9.27796       4.43040       3.16649       1.33812       3.28641       4.31645       0.35650       0.71599      16.11538      11.37322      12.47532       0.75932       3.52780  
    13.68180       5.45465       4.41175       3.91710       1.13986       2.70602       4.36483       0.40000       0.79216      19.61538       9.29963       6.91524       0.82933       3.74833  
     7.12018       1.83504       4.26688       3.82211       1.04387       2.20489       3.62459       0.56284       0.81658      21.80769       7.01784       2.93497       0.88600       4.02511  
     2.98317      -1.70027       4.40194       4.93179       1.00161       1.98870       3.46522       0.58947       0.80855      22.50000       6.15087       1.87432       0.88902       4.26696  
ID14                           52.62000      18.65000      92.90000        26  
 tmp_max_ave   tmp_min_ave    tmp_max_sd    tmp_min_sd       pcp_ave        pcp_sd      pcp_skew       wet_dry       wet_wet      pcp_days       pcp_hhr       slr_ave       dew_ave       wnd_ave  
     1.60809      -3.32036       4.88049       5.78687       1.01063       1.81151       3.38066       0.44974       0.86062      23.73077       6.53801       2.45541       0.87732       4.41286  
     3.44472      -2.74141       4.83221       5.34882       0.93392       1.89669       3.74450       0.47768       0.77801      18.53846       6.47836       5.21376       0.84447       4.38864  
     8.02861      -0.57791       5.04846       4.26819       0.92490       2.10457       3.97266       0.34375       0.75604      17.50000       7.04178      10.10433       0.77649       4.31317  
    14.96738       3.59714       5.20753       3.73362       0.91837       2.32295       5.14855       0.32523       0.74347      16.19231      10.04769      16.83885       0.70057       4.07626  
    20.12187       7.94564       4.85714       3.70305       1.68580       3.83579       4.08480       0.37716       0.77366      18.69231      15.81560      20.40096       0.68636       3.67554  
    23.66002      11.33783       4.61079       3.19473       1.91420       4.67618       5.56877       0.45848       0.72939      18.19231      23.43371      22.22683       0.69154       3.46493  
    25.73094      13.53777       4.33163       2.83634       2.72137       5.75118       3.08628       0.48927       0.78782      20.84615      13.44719      20.20865       0.70578       3.38441  
    25.36787      13.14271       4.25305       2.88760       1.73636       3.73412       3.35869       0.43860       0.74286      18.84615      11.54532      17.86230       0.69963       3.31285  
    20.10390       9.25208       4.44490       3.18398       1.33832       3.31538       4.31663       0.35650       0.71599      16.11538      11.08828      12.47594       0.75924       3.52773  
    13.68556       5.43862       4.41788       3.93287       1.13909       2.71233       4.42689       0.40075       0.78937      19.53846       9.35092       6.91531       0.82932       3.74835  
     7.12675       1.83217       4.27500       3.83787       1.04326       2.19034       3.57309       0.56989       0.81028      21.69231       7.01100       2.93503       0.88604       4.02508  
     2.98262      -1.70720       4.41434       4.94964       1.00472       1.99065       3.39631       0.58947       0.80855      22.50000       6.04221       1.87443       0.88912       4.26691  
ID15                           52.62000      18.68000      89.40000        26  
 tmp_max_ave   tmp_min_ave    tmp_max_sd    tmp_min_sd       pcp_ave        pcp_sd      pcp_skew       wet_dry       wet_wet      pcp_days       pcp_hhr       slr_ave       dew_ave       wnd_ave  
     1.60635      -3.33080       4.88088       5.80479       1.01227       1.82401       3.30345       0.44792       0.85831      23.61538       6.48026       2.45525       0.87739       4.41284  
     3.44349      -2.75782       4.83232       5.36786       0.93576       1.89810       3.66416       0.46930       0.77615      18.38462       6.38832       5.21352       0.84460       4.38866  
     8.03248      -0.60032       5.05054       4.28549       0.92347       2.09327       3.91307       0.34049       0.75056      17.26923       6.82560      10.10498       0.77667       4.31314  
    14.97514       3.58524       5.21942       3.74987       0.92605       2.32999       4.97867       0.32335       0.73798      16.00000       9.84443      16.83992       0.70079       4.07626  
    20.13561       7.92751       4.87400       3.71775       1.68690       3.86008       4.06403       0.38144       0.76860      18.61538      15.64084      20.40097       0.68630       3.67554  
    23.67296      11.31780       4.62992       3.20956       1.92855       4.84250       5.90887       0.46071       0.72340      18.07692      24.97086      22.22611       0.69140       3.46496  
    25.74035      13.52452       4.34669       2.85056       2.72182       5.86012       3.18057       0.49153       0.78293      20.73077      14.40762      20.20788       0.70581       3.38447  
    25.37826      13.11936       4.26665       2.89276       1.74848       3.82428       3.44415       0.44251       0.73770      18.76923      12.20220      17.86239       0.69963       3.31278  
    20.11145       9.23044       4.45447       3.19877       1.33632       3.35366       4.36717       0.34627       0.71807      15.96154      10.96595      12.47628       0.75920       3.52767  
    13.68806       5.42492       4.42252       3.94466       1.13697       2.72337       4.50943       0.39483       0.78770      19.38462       9.41170       6.91535       0.82930       3.74835  
     7.12946       1.82928       4.28253       3.85095       1.04108       2.18169       3.53358       0.56545       0.80501      21.50000       7.03228       2.93506       0.88606       4.02504  
     2.98078      -1.71518       4.42435       4.96554       1.00594       2.00044       3.38958       0.58763       0.80379      22.34615       6.31651       1.87449       0.88918       4.26686  
ID16                           52.62000      18.71000      90.50000        26  
 tmp_max_ave   tmp_min_ave    tmp_max_sd    tmp_min_sd       pcp_ave        pcp_sd      pcp_skew       wet_dry       wet_wet      pcp_days       pcp_hhr       slr_ave       dew_ave       wnd_ave  
     1.60376      -3.34126       4.87994       5.81597       1.01470       1.82446       3.22619       0.44845       0.85621      23.53846       6.40238       2.45523       0.87740       4.41282  
     3.44254      -2.77163       4.83094       5.38097       0.93949       1.89940       3.61114       0.46957       0.77311      18.30769       6.33855       5.21350       0.84462       4.38867  
     8.03385      -0.61486       5.05145       4.29479       0.92160       2.08108       3.87045       0.33841       0.74944      17.19231       6.77849      10.10508       0.77668       4.31311  
    14.97668       3.58038       5.22405       3.75498       0.92826       2.31930       4.85573       0.32239       0.73735      15.96154       9.60242      16.84007       0.70084       4.07625  
    20.13910       7.92158       4.87676       3.72297       1.69126       3.87980       4.06420       0.38225       0.76556      18.53846      15.60816      20.40097       0.68629       3.67554  
    23.67428      11.30753       4.63269       3.21624       1.93216       4.86480       5.96419       0.45936       0.71949      17.96154      25.16994      22.22602       0.69138       3.46497  
    25.74303      13.51917       4.35204       2.85528       2.71844       5.89019       3.24149       0.49167       0.77757      20.57692      14.54515      20.20778       0.70581       3.38451  
    25.38124      13.10537       4.26952       2.89484       1.75650       3.87667       3.45984       0.43945       0.73663      18.69231      12.43471      17.86240       0.69963       3.31273  
    20.11213       9.21417       4.45642       3.20746       1.33428       3.36752       4.40773       0.34421       0.71671      15.88462      10.93556      12.47633       0.75918       3.52762  
    13.68762       5.41461       4.42392       3.94999       1.13486       2.72322       4.53324       0.39051       0.78643      19.26923       9.48351       6.91536       0.82929       3.74834  
     7.12684       1.82676       4.28806       3.85888       1.03891       2.17559       3.51950       0.56410       0.80000      21.34615       7.08167       2.93507       0.88606       4.02499  
     2.97744      -1.72445       4.43074       4.97805       1.00754       2.00848       3.45524       0.58163       0.80311      22.26923       6.81839       1.87449       0.88920       4.26681  
ID17                           52.62000      18.74000      94.40000        26  
 tmp_max_ave   tmp_min_ave    tmp_max_sd    tmp_min_sd       pcp_ave        pcp_sd      pcp_skew       wet_dry       wet_wet      pcp_days       pcp_hhr       slr_ave       dew_ave       wnd_ave  
     1.60061      -3.35271       4.87742       5.82136       1.01961       1.81310       3.14807       0.44974       0.86062      23.73077       6.30930       2.45536       0.87736       4.41281  
     3.44150      -2.78458       4.82759       5.38988       0.94661       1.89812       3.57770       0.47768       0.77801      18.53846       6.31917       5.21366       0.84452       4.38868  
     8.03254      -0.62392       5.05002       4.29795       0.92048       2.06919       3.84598       0.33851       0.75717      17.42308       6.85524      10.10459       0.77654       4.31309  
    14.97235       3.58010       5.22200       3.75088       0.92462       2.29057       4.77937       0.32530       0.73923      16.07692       9.32964      16.83927       0.70065       4.07626  
    20.13299       7.92325       4.86853       3.72086       1.69737       3.88751       4.07915       0.37931       0.77113      18.65385      15.63970      20.40096       0.68633       3.67553  
    23.66614      11.30502       4.62126       3.21571       1.92938       4.73728       5.65857       0.45683       0.72881      18.15385      23.65368      22.22655       0.69148       3.46499  
    25.73830      13.51939       4.34889       2.85300       2.70900       5.82623       3.28205       0.49145       0.78558      20.80769      15.81560      20.20836       0.70580       3.38455  
    25.37623      13.09846       4.26250       2.89422       1.76193       3.88635       3.41378       0.43860       0.74286      18.84615      11.54000      17.86234       0.69963       3.31269  
    20.10630       9.20173       4.45090       3.21076       1.33352       3.34967       4.41201       0.34835       0.71942      16.03846      11.34549      12.47608       0.75922       3.52760  
    13.68357       5.40676       4.42182       3.95040       1.13334       2.70861       4.47266       0.39552       0.79093      19.50000       9.56481       6.91533       0.82931       3.74834  
     7.12014       1.82404       4.29147       3.86271       1.03753       2.17005       3.53148       0.57219       0.80817      21.65385       7.15955       2.93504       0.88605       4.02497  
     2.97345      -1.73494       4.43364       4.98705       1.01178       2.01421       3.58623       0.58947       0.80855      22.50000       7.27999       1.87445       0.88914       4.26678  
ID18                           52.61000      18.56000      95.20000        26  
 tmp_max_ave   tmp_min_ave    tmp_max_sd    tmp_min_sd       pcp_ave        pcp_sd      pcp_skew       wet_dry       wet_wet      pcp_days       pcp_hhr       slr_ave       dew_ave       wnd_ave  
     1.61762      -3.28730       4.88407       5.71519       0.99103       1.78805       3.57185       0.44974       0.86062      23.73077       6.62843       2.45656       0.87681       4.41291  
     3.45388      -2.68562       4.83279       5.28126       0.91935       1.93169       4.00850       0.47768       0.77801      18.53846       7.03228       5.21554       0.84354       4.38859  
     8.01394      -0.49195       5.04103       4.20737       0.91190       2.13956       4.17385       0.34375       0.75604      17.50000       7.55125      10.09911       0.77528       4.31325  
    14.93667       3.64554       5.16346       3.67680       0.87832       2.29751       5.65286       0.32523       0.74347      16.19231      10.40557      16.83036       0.69885       4.07625  
    20.05660       8.02050       4.78897       3.65788       1.67693       3.87308       4.22851       0.37716       0.77366      18.69231      16.37142      20.40091       0.68683       3.67554  
    23.60478      11.43005       4.52963       3.14080       1.84541       4.28547       4.54196       0.46377       0.72785      18.23077      17.72621      22.23246       0.69246       3.46486  
    25.67629      13.59690       4.26834       2.78829       2.71890       5.80182       3.21404       0.49569       0.78637      20.88462      14.45245      20.21470       0.70551       3.38424  
    25.31440      13.23549       4.19415       2.86725       1.70376       3.68696       3.31161       0.43662       0.74542      18.88462      11.67981      17.86154       0.69972       3.31300  
    20.06018       9.32944       4.40035       3.13195       1.32177       3.27420       4.44828       0.35650       0.71599      16.11538      12.20068      12.47326       0.75958       3.52787  
    13.67149       5.49053       4.39970       3.89437       1.13709       2.72846       4.33924       0.40000       0.79216      19.61538       9.18489       6.91499       0.82937       3.74834  
     7.12025       1.84407       4.25193       3.79504       1.03617       2.23381       3.71268       0.56284       0.81658      21.80769       7.13296       2.93477       0.88588       4.02518  
     2.99269      -1.68238       4.38038       4.89419       0.98979       2.00983       3.72281       0.58947       0.80855      22.50000       6.76596       1.87397       0.88868       4.26704  
ID19                           52.61000      18.59000      94.10000        26  
 tmp_max_ave   tmp_min_ave    tmp_max_sd    tmp_min_sd       pcp_ave        pcp_sd      pcp_skew       wet_dry       wet_wet      pcp_days       pcp_hhr       slr_ave       dew_ave       wnd_ave  
     1.61414      -3.29359       4.88498       5.73722       1.00260       1.79183       3.51476       0.44974       0.86062      23.73077       6.63147       2.45607       0.87701       4.41287  
     3.45079      -2.69955       4.83507       5.29935       0.92721       1.90926       3.90404       0.47768       0.77801      18.53846       6.78153       5.21477       0.84392       4.38862  
     8.02055      -0.51648       5.04649       4.22432       0.91988       2.12432       4.09606       0.34375       0.75604      17.50000       7.35293      10.10135       0.77576       4.31318  
    14.94778       3.63565       5.17884       3.69458       0.89400       2.30062       5.50937       0.32523       0.74347      16.19231      10.32161      16.83401       0.69953       4.07625  
    20.08046       8.00093       4.81254       3.66957       1.68201       3.83571       4.17917       0.37716       0.77366      18.69231      16.17386      20.40093       0.68663       3.67554  
    23.62364      11.40303       4.55865       3.15693       1.86757       4.35089       4.81030       0.46377       0.72785      18.23077      19.40886      22.23005       0.69208       3.46491  
    25.69775      13.58247       4.29194       2.80328       2.71761       5.68042       3.07264       0.49569       0.78637      20.88462      13.73669      20.21210       0.70561       3.38435  
    25.33424      13.20979       4.21545       2.87293       1.71562       3.65240       3.28036       0.43662       0.74542      18.88462      11.63232      17.86188       0.69968       3.31288  
    20.07654       9.30723       4.41783       3.14844       1.33139       3.26580       4.35515       0.35650       0.71599      16.11538      11.72920      12.47442       0.75945       3.52775  
    13.67770       5.47725       4.40802       3.90631       1.14104       2.71333       4.33609       0.40000       0.79216      19.61538       9.22403       6.91514       0.82935       3.74834  
     7.12385       1.84409       4.26146       3.80889       1.04132       2.21521       3.67355       0.56284       0.81658      21.80769       7.08167       2.93488       0.88595       4.02509  
     2.98891      -1.68709       4.39282       4.91084       0.99772       1.99151       3.55443       0.58947       0.80855      22.50000       6.19988       1.87416       0.88885       4.26694  
ID2                            52.66000      18.63000      89.10000        26  
 tmp_max_ave   tmp_min_ave    tmp_max_sd    tmp_min_sd       pcp_ave        pcp_sd      pcp_skew       wet_dry       wet_wet      pcp_days       pcp_hhr       slr_ave       dew_ave       wnd_ave  
     1.60323      -3.32433       4.86878       5.75890       1.01239       1.79919       3.40271       0.44974       0.86062      23.73077       6.51901       2.45598       0.87708       4.41296  
     3.44324      -2.72995       4.82462       5.32534       0.93956       1.93097       3.85092       0.47768       0.77801      18.53846       6.51825       5.21465       0.84403       4.38853  